X1V9
 OpenBabel08152610123D

 37 39  0  0  0  0  0  0  0  0999 V2000
   -0.7920   -1.7660   -0.6270 S   0  0  0  0  0  0  0  0  0  0  0  0
   -2.0830   -0.8140    0.0100 C   0  0  0  0  0  0  0  0  0  0  0  0
   -1.7140    0.3590    0.4740 N   0  0  0  0  0  0  0  0  0  0  0  0
   -0.3490    0.5300    0.3610 C   0  0  0  0  0  0  0  0  0  0  0  0
    0.3390   -0.5190   -0.2510 C   0  0  0  0  0  0  0  0  0  0  0  0
    1.7310   -0.4750   -0.4620 C   0  0  0  0  0  0  0  0  0  0  0  0
    2.4210    0.6490    0.0100 C   0  0  0  0  0  0  0  0  0  0  0  0
    1.7620    1.7050    0.6340 C   0  0  0  0  0  0  0  0  0  0  0  0
    0.3760    1.6530    0.8100 C   0  0  0  0  0  0  0  0  0  0  0  0
    4.1780    0.7450   -0.1990 S   0  0  0  0  0  0  0  0  0  0  0  0
    4.6260    2.0660    0.1630 O   0  0  0  0  0  0  0  0  0  0  0  0
    4.7720   -0.4550    0.3370 O   0  0  0  0  0  0  0  0  0  0  0  0
    4.3620    0.6720   -1.8700 N   0  0  0  0  0  0  0  0  0  0  0  0
   -3.3600   -1.2910   -0.0030 N   0  0  0  0  0  0  0  0  0  0  0  0
   -4.4270   -0.4430    0.0210 N   0  0  0  0  0  0  0  0  0  0  0  0
   -5.6090   -0.9660   -0.0550 C   0  0  0  0  0  0  0  0  0  0  0  0
   -6.8050   -0.0930   -0.1070 C   0  0  0  0  0  0  0  0  0  0  0  0
   -6.6510    1.2980   -0.1300 C   0  0  0  0  0  0  0  0  0  0  0  0
   -7.7670    2.1280   -0.1930 C   0  0  0  0  0  0  0  0  0  0  0  0
   -9.0520    1.5840   -0.2290 C   0  0  0  0  0  0  0  0  0  0  0  0
   -9.2060    0.1890   -0.2020 C   0  0  0  0  0  0  0  0  0  0  0  0
   -8.0850   -0.6510   -0.1420 C   0  0  0  0  0  0  0  0  0  0  0  0
  -10.2580    2.4790   -0.2950 C   0  0  0  0  0  0  0  0  0  0  0  0
    2.2490   -1.2940   -0.9550 H   0  0  0  0  0  0  0  0  0  0  0  0
    2.3070    2.5730    0.9990 H   0  0  0  0  0  0  0  0  0  0  0  0
   -0.1520    2.4640    1.3040 H   0  0  0  0  0  0  0  0  0  0  0  0
    5.1670    0.0820   -2.0860 H   0  0  0  0  0  0  0  0  0  0  0  0
    4.4500    1.6150   -2.2560 H   0  0  0  0  0  0  0  0  0  0  0  0
   -3.4920   -2.2520   -0.3070 H   0  0  0  0  0  0  0  0  0  0  0  0
   -5.7720   -2.0540   -0.0950 H   0  0  0  0  0  0  0  0  0  0  0  0
   -5.6550    1.7410   -0.1070 H   0  0  0  0  0  0  0  0  0  0  0  0
   -7.6210    3.2080   -0.2130 H   0  0  0  0  0  0  0  0  0  0  0  0
  -10.2010   -0.2500   -0.2290 H   0  0  0  0  0  0  0  0  0  0  0  0
   -8.2270   -1.7270   -0.1240 H   0  0  0  0  0  0  0  0  0  0  0  0
   -9.9700    3.5350   -0.3080 H   0  0  0  0  0  0  0  0  0  0  0  0
  -10.8970    2.3170    0.5780 H   0  0  0  0  0  0  0  0  0  0  0  0
  -10.8300    2.2780   -1.2060 H   0  0  0  0  0  0  0  0  0  0  0  0
  1  2  1  0  0  0  0
  1  5  1  0  0  0  0
  2  3  2  0  0  0  0
  2 14  1  0  0  0  0
  3  4  1  0  0  0  0
  4  5  2  0  0  0  0
  4  9  1  0  0  0  0
  5  6  1  0  0  0  0
  6  7  2  0  0  0  0
  6 24  1  0  0  0  0
  7  8  1  0  0  0  0
  7 10  1  0  0  0  0
  8  9  2  0  0  0  0
  8 25  1  0  0  0  0
  9 26  1  0  0  0  0
 10 11  2  0  0  0  0
 10 12  2  0  0  0  0
 10 13  1  0  0  0  0
 13 27  1  0  0  0  0
 13 28  1  0  0  0  0
 14 15  1  0  0  0  0
 14 29  1  0  0  0  0
 15 16  2  0  0  0  0
 16 17  1  0  0  0  0
 16 30  1  0  0  0  0
 17 18  2  0  0  0  0
 17 22  1  0  0  0  0
 18 19  1  0  0  0  0
 18 31  1  0  0  0  0
 19 20  2  0  0  0  0
 19 32  1  0  0  0  0
 20 21  1  0  0  0  0
 20 23  1  0  0  0  0
 21 22  2  0  0  0  0
 21 33  1  0  0  0  0
 22 34  1  0  0  0  0
 23 35  1  0  0  0  0
 23 36  1  0  0  0  0
 23 37  1  0  0  0  0
M  END
$$$$
