BI-1
 OpenBabel08152610123D

 37 39  0  0  0  0  0  0  0  0999 V2000
    3.5680    2.3150    3.5910 F   0  0  0  0  0  0  0  0  0  0  0  0
    3.1990    3.8400    2.0830 F   0  0  0  0  0  0  0  0  0  0  0  0
    3.6480    2.5730    2.2610 C   0  0  0  0  0  0  0  0  0  0  0  0
    5.0150    2.5090    1.8970 O   0  0  0  0  0  0  0  0  0  0  0  0
    4.8000    2.9100   -1.8080 C   0  0  0  0  0  0  0  0  0  0  0  0
    4.4120    2.9030   -0.4590 C   0  0  0  0  0  0  0  0  0  0  0  0
    5.2980    2.5280    0.5580 C   0  0  0  0  0  0  0  0  0  0  0  0
    6.6160    2.1710    0.2460 C   0  0  0  0  0  0  0  0  0  0  0  0
    8.2790    2.0050   -1.6250 N   0  0  0  0  0  0  0  0  0  0  0  0
    7.0300    2.2020   -1.0910 C   0  0  0  0  0  0  0  0  0  0  0  0
    6.1200    2.5580   -2.0810 C   0  0  0  0  0  0  0  0  0  0  0  0
    6.8520    2.5170   -3.2450 N   0  0  0  0  0  0  0  0  0  0  0  0
    8.1470    2.2610   -2.9010 C   0  0  0  0  0  0  0  0  0  0  0  0
    9.4350    2.6290   -3.9870 S   0  0  0  0  0  0  0  0  0  0  0  0
   11.2060    5.4830    0.4010 C   0  0  0  0  0  0  0  0  0  0  0  0
   11.0500    6.3130    1.5160 C   0  0  0  0  0  0  0  0  0  0  0  0
    9.7770    6.7130    1.9260 C   0  0  0  0  0  0  0  0  0  0  0  0
    8.6580    6.2950    1.2110 C   0  0  0  0  0  0  0  0  0  0  0  0
    8.8160    5.4680    0.1000 C   0  0  0  0  0  0  0  0  0  0  0  0
   10.0910    5.0400   -0.3060 C   0  0  0  0  0  0  0  0  0  0  0  0
   10.1420    4.1460   -1.3890 N   0  0  0  0  0  0  0  0  0  0  0  0
   12.3820    3.5830   -1.5160 O   0  0  0  0  0  0  0  0  0  0  0  0
   10.9010    2.3700   -2.9370 C   0  0  0  0  0  0  0  0  0  0  0  0
   11.2170    3.4480   -1.8940 C   0  0  0  0  0  0  0  0  0  0  0  0
    3.0180    1.8550    1.7230 H   0  0  0  0  0  0  0  0  0  0  0  0
    4.1110    3.2150   -2.5890 H   0  0  0  0  0  0  0  0  0  0  0  0
    3.4000    3.2350   -0.2370 H   0  0  0  0  0  0  0  0  0  0  0  0
    7.3260    1.9150    1.0260 H   0  0  0  0  0  0  0  0  0  0  0  0
    6.5360    2.7870   -4.1650 H   0  0  0  0  0  0  0  0  0  0  0  0
   12.2110    5.1870    0.1180 H   0  0  0  0  0  0  0  0  0  0  0  0
   11.9250    6.6390    2.0700 H   0  0  0  0  0  0  0  0  0  0  0  0
    9.6610    7.3440    2.8020 H   0  0  0  0  0  0  0  0  0  0  0  0
    7.6650    6.5990    1.5270 H   0  0  0  0  0  0  0  0  0  0  0  0
    7.9260    5.1460   -0.4350 H   0  0  0  0  0  0  0  0  0  0  0  0
    9.2390    3.8450   -1.7240 H   0  0  0  0  0  0  0  0  0  0  0  0
   11.7550    2.3410   -3.6220 H   0  0  0  0  0  0  0  0  0  0  0  0
   10.8450    1.3980   -2.4360 H   0  0  0  0  0  0  0  0  0  0  0  0
  1  3  1  0  0  0  0
  2  3  1  0  0  0  0
  3  4  1  0  0  0  0
  3 25  1  0  0  0  0
  4  7  1  0  0  0  0
  5 11  2  0  0  0  0
  5  6  1  0  0  0  0
  5 26  1  0  0  0  0
  6  7  2  0  0  0  0
  6 27  1  0  0  0  0
  7  8  1  0  0  0  0
  8 10  2  0  0  0  0
  8 28  1  0  0  0  0
  9 13  2  0  0  0  0
  9 10  1  0  0  0  0
 10 11  1  0  0  0  0
 11 12  1  0  0  0  0
 12 13  1  0  0  0  0
 12 29  1  0  0  0  0
 13 14  1  0  0  0  0
 14 23  1  0  0  0  0
 15 20  2  0  0  0  0
 15 16  1  0  0  0  0
 15 30  1  0  0  0  0
 16 17  2  0  0  0  0
 16 31  1  0  0  0  0
 17 18  1  0  0  0  0
 17 32  1  0  0  0  0
 18 19  2  0  0  0  0
 18 33  1  0  0  0  0
 19 20  1  0  0  0  0
 19 34  1  0  0  0  0
 20 21  1  0  0  0  0
 21 24  1  0  0  0  0
 21 35  1  0  0  0  0
 22 24  2  0  0  0  0
 23 24  1  0  0  0  0
 23 36  1  0  0  0  0
 23 37  1  0  0  0  0
M  END
$$$$
