BI-6
 OpenBabel08152610123D

 40 42  0  0  0  0  0  0  0  0999 V2000
    0.9510   -0.0420    0.0370 C   0  0  0  0  0  0  0  0  0  0  0  0
    0.1310   -0.5620   -1.1260 C   0  0  0  0  0  0  0  0  0  0  0  0
    1.0130   -0.7000    1.0770 O   0  0  0  0  0  0  0  0  0  0  0  0
    1.5840    1.1720   -0.1670 N   0  0  0  0  0  0  0  0  0  0  0  0
    2.4000    1.8180    0.7960 C   0  0  0  0  0  0  0  0  0  0  0  0
    2.9530    1.1390    1.8850 C   0  0  0  0  0  0  0  0  0  0  0  0
    3.7840    3.1990    2.8090 C   0  0  0  0  0  0  0  0  0  0  0  0
    2.6250    3.1910    0.6760 C   0  0  0  0  0  0  0  0  0  0  0  0
    3.6190    1.8170    2.9110 C   0  0  0  0  0  0  0  0  0  0  0  0
    3.3080    3.8800    1.6860 C   0  0  0  0  0  0  0  0  0  0  0  0
    4.0850    1.0660    4.1220 C   0  0  0  0  0  0  0  0  0  0  0  0
    0.8720   -2.0750   -1.7930 S   0  0  0  0  0  0  0  0  0  0  0  0
    0.5400   -3.2700   -0.5840 C   0  0  0  0  0  0  0  0  0  0  0  0
    1.2230   -3.3050    0.6000 N   0  0  0  0  0  0  0  0  0  0  0  0
    0.9580   -4.5080    1.2100 C   0  0  0  0  0  0  0  0  0  0  0  0
    0.0410   -5.1160    0.3590 C   0  0  0  0  0  0  0  0  0  0  0  0
   -0.2150   -4.3300   -0.7420 N   0  0  0  0  0  0  0  0  0  0  0  0
   -0.4530   -6.3860    0.6910 C   0  0  0  0  0  0  0  0  0  0  0  0
    0.0310   -7.0290    1.8380 C   0  0  0  0  0  0  0  0  0  0  0  0
    0.9460   -6.3880    2.6810 C   0  0  0  0  0  0  0  0  0  0  0  0
    1.4270   -5.1030    2.3840 C   0  0  0  0  0  0  0  0  0  0  0  0
   -0.4940   -8.2740    2.0570 O   0  0  0  0  0  0  0  0  0  0  0  0
    0.3850   -9.2090    2.6600 C   0  0  0  0  0  0  0  0  0  0  0  0
    0.2560   -9.1230    4.0070 F   0  0  0  0  0  0  0  0  0  0  0  0
   -0.0410  -10.4490    2.3070 F   0  0  0  0  0  0  0  0  0  0  0  0
    0.0920    0.1820   -1.9280 H   0  0  0  0  0  0  0  0  0  0  0  0
   -0.8970   -0.7350   -0.7900 H   0  0  0  0  0  0  0  0  0  0  0  0
    1.3160    1.7230   -0.9710 H   0  0  0  0  0  0  0  0  0  0  0  0
    2.8700    0.0600    1.9690 H   0  0  0  0  0  0  0  0  0  0  0  0
    4.2760    3.7510    3.6060 H   0  0  0  0  0  0  0  0  0  0  0  0
    2.2370    3.7550   -0.1670 H   0  0  0  0  0  0  0  0  0  0  0  0
    3.4460    4.9560    1.6130 H   0  0  0  0  0  0  0  0  0  0  0  0
    3.9220   -0.0130    4.0110 H   0  0  0  0  0  0  0  0  0  0  0  0
    3.5240    1.3940    5.0020 H   0  0  0  0  0  0  0  0  0  0  0  0
    5.1550    1.2250    4.2870 H   0  0  0  0  0  0  0  0  0  0  0  0
    1.8030   -2.5580    0.9570 H   0  0  0  0  0  0  0  0  0  0  0  0
   -1.1750   -6.8670    0.0410 H   0  0  0  0  0  0  0  0  0  0  0  0
    1.2920   -6.8620    3.5980 H   0  0  0  0  0  0  0  0  0  0  0  0
    2.1380   -4.6030    3.0360 H   0  0  0  0  0  0  0  0  0  0  0  0
    1.4350   -9.1020    2.3650 H   0  0  0  0  0  0  0  0  0  0  0  0
  1  2  1  0  0  0  0
  1  3  2  0  0  0  0
  1  4  1  0  0  0  0
  2 12  1  0  0  0  0
  2 26  1  0  0  0  0
  2 27  1  0  0  0  0
  4  5  1  0  0  0  0
  4 28  1  0  0  0  0
  5  6  2  0  0  0  0
  5  8  1  0  0  0  0
  6  9  1  0  0  0  0
  6 29  1  0  0  0  0
  7  9  2  0  0  0  0
  7 10  1  0  0  0  0
  7 30  1  0  0  0  0
  8 10  2  0  0  0  0
  8 31  1  0  0  0  0
  9 11  1  0  0  0  0
 10 32  1  0  0  0  0
 11 33  1  0  0  0  0
 11 34  1  0  0  0  0
 11 35  1  0  0  0  0
 12 13  1  0  0  0  0
 13 14  1  0  0  0  0
 13 17  2  0  0  0  0
 14 15  1  0  0  0  0
 14 36  1  0  0  0  0
 15 16  2  0  0  0  0
 15 21  1  0  0  0  0
 16 17  1  0  0  0  0
 16 18  1  0  0  0  0
 18 19  2  0  0  0  0
 18 37  1  0  0  0  0
 19 20  1  0  0  0  0
 19 22  1  0  0  0  0
 20 21  2  0  0  0  0
 20 38  1  0  0  0  0
 21 39  1  0  0  0  0
 22 23  1  0  0  0  0
 23 24  1  0  0  0  0
 23 25  1  0  0  0  0
 23 40  1  0  0  0  0
M  END
$$$$
