OX-11
 OpenBabel08152610123D

 53 56  0  0  0  0  0  0  0  0999 V2000
   -0.4760    0.8800    3.4550 N   0  0  0  0  0  0  0  0  0  0  0  0
   -1.0920    0.6780    4.7430 C   0  0  0  0  0  0  0  0  0  0  0  0
    0.6960    1.5430    3.2120 C   0  0  0  0  0  0  0  0  0  0  0  0
    0.9960    1.5460    1.9270 N   0  0  0  0  0  0  0  0  0  0  0  0
   -0.0310    0.8750    1.3360 C   0  0  0  0  0  0  0  0  0  0  0  0
   -0.1920    0.6270   -0.0070 N   0  0  0  0  0  0  0  0  0  0  0  0
    0.7930    1.0560   -0.9820 C   0  0  0  0  0  0  0  0  0  0  0  0
   -1.3310   -0.0560   -0.4500 C   0  0  0  0  0  0  0  0  0  0  0  0
   -1.5270   -0.2600   -1.6520 O   0  0  0  0  0  0  0  0  0  0  0  0
   -2.2370   -0.5050    0.5290 N   0  0  0  0  0  0  0  0  0  0  0  0
   -2.1140   -0.2770    1.8970 C   0  0  0  0  0  0  0  0  0  0  0  0
   -2.9120   -0.6780    2.7420 O   0  0  0  0  0  0  0  0  0  0  0  0
   -0.9490    0.4550    2.2470 C   0  0  0  0  0  0  0  0  0  0  0  0
   -3.3810   -1.3120    0.1130 C   0  0  0  0  0  0  0  0  0  0  0  0
   -4.5980   -0.4820   -0.1050 C   0  0  0  0  0  0  0  0  0  0  0  0
   -4.8270   -0.0680   -1.3910 O   0  0  0  0  0  0  0  0  0  0  0  0
   -6.0120    0.5980   -1.2710 C   0  0  0  0  0  0  0  0  0  0  0  0
   -6.4810    0.5780   -0.0410 N   0  0  0  0  0  0  0  0  0  0  0  0
   -5.5690   -0.1370    0.7140 N   0  0  0  0  0  0  0  0  0  0  0  0
   -6.8870    1.2470   -2.6230 S   0  0  0  0  0  0  0  0  0  0  0  0
   -7.0790   -0.2730   -3.5760 C   0  0  0  0  0  0  0  0  0  0  0  0
   -7.9350   -1.3570   -2.9320 C   0  0  0  0  0  0  0  0  0  0  0  0
   -8.4420   -1.1610   -1.6580 N   0  0  0  0  0  0  0  0  0  0  0  0
   -8.1380   -2.3940   -3.5880 O   0  0  0  0  0  0  0  0  0  0  0  0
   -9.2880   -2.1190   -1.0310 C   0  0  0  0  0  0  0  0  0  0  0  0
   -8.8400   -3.4280   -0.7490 C   0  0  0  0  0  0  0  0  0  0  0  0
   -9.7620   -4.3850   -0.2870 C   0  0  0  0  0  0  0  0  0  0  0  0
  -11.0920   -4.0450   -0.0630 C   0  0  0  0  0  0  0  0  0  0  0  0
  -11.5070   -2.7290   -0.2420 C   0  0  0  0  0  0  0  0  0  0  0  0
  -10.6130   -1.7480   -0.7070 C   0  0  0  0  0  0  0  0  0  0  0  0
  -11.1340   -0.3540   -0.9270 C   0  0  0  0  0  0  0  0  0  0  0  0
   -7.4050   -3.8660   -0.8740 C   0  0  0  0  0  0  0  0  0  0  0  0
   -0.4890    1.1660    5.5140 H   0  0  0  0  0  0  0  0  0  0  0  0
   -1.1420   -0.3960    4.9390 H   0  0  0  0  0  0  0  0  0  0  0  0
   -2.0920    1.1180    4.7250 H   0  0  0  0  0  0  0  0  0  0  0  0
    1.2850    2.0020    3.9970 H   0  0  0  0  0  0  0  0  0  0  0  0
    1.6180    1.6070   -0.5230 H   0  0  0  0  0  0  0  0  0  0  0  0
    0.3030    1.6930   -1.7260 H   0  0  0  0  0  0  0  0  0  0  0  0
    1.1900    0.1720   -1.4920 H   0  0  0  0  0  0  0  0  0  0  0  0
   -3.5900   -2.0760    0.8760 H   0  0  0  0  0  0  0  0  0  0  0  0
   -3.1510   -1.8500   -0.8110 H   0  0  0  0  0  0  0  0  0  0  0  0
   -6.0890   -0.7030   -3.7590 H   0  0  0  0  0  0  0  0  0  0  0  0
   -7.5030   -0.0380   -4.5630 H   0  0  0  0  0  0  0  0  0  0  0  0
   -8.6020   -0.1940   -1.4040 H   0  0  0  0  0  0  0  0  0  0  0  0
   -9.4430   -5.4120   -0.1130 H   0  0  0  0  0  0  0  0  0  0  0  0
  -11.8040   -4.8050    0.2490 H   0  0  0  0  0  0  0  0  0  0  0  0
  -12.5500   -2.4800   -0.0510 H   0  0  0  0  0  0  0  0  0  0  0  0
  -12.1910   -0.2690   -0.6470 H   0  0  0  0  0  0  0  0  0  0  0  0
  -11.0530   -0.0830   -1.9840 H   0  0  0  0  0  0  0  0  0  0  0  0
  -10.5770    0.3640   -0.3170 H   0  0  0  0  0  0  0  0  0  0  0  0
   -6.7270   -3.0410   -1.1060 H   0  0  0  0  0  0  0  0  0  0  0  0
   -7.3130   -4.6260   -1.6550 H   0  0  0  0  0  0  0  0  0  0  0  0
   -7.0560   -4.2940    0.0750 H   0  0  0  0  0  0  0  0  0  0  0  0
  1  2  1  0  0  0  0
  1  3  1  0  0  0  0
  1 13  1  0  0  0  0
  2 33  1  0  0  0  0
  2 34  1  0  0  0  0
  2 35  1  0  0  0  0
  3  4  2  0  0  0  0
  3 36  1  0  0  0  0
  4  5  1  0  0  0  0
  5  6  1  0  0  0  0
  5 13  2  0  0  0  0
  6  7  1  0  0  0  0
  6  8  1  0  0  0  0
  7 37  1  0  0  0  0
  7 38  1  0  0  0  0
  7 39  1  0  0  0  0
  8  9  2  0  0  0  0
  8 10  1  0  0  0  0
 10 11  1  0  0  0  0
 10 14  1  0  0  0  0
 11 12  2  0  0  0  0
 11 13  1  0  0  0  0
 14 15  1  0  0  0  0
 14 40  1  0  0  0  0
 14 41  1  0  0  0  0
 15 16  1  0  0  0  0
 15 19  2  0  0  0  0
 16 17  1  0  0  0  0
 17 18  2  0  0  0  0
 17 20  1  0  0  0  0
 18 19  1  0  0  0  0
 20 21  1  0  0  0  0
 21 22  1  0  0  0  0
 21 42  1  0  0  0  0
 21 43  1  0  0  0  0
 22 23  1  0  0  0  0
 22 24  2  0  0  0  0
 23 25  1  0  0  0  0
 23 44  1  0  0  0  0
 25 26  2  0  0  0  0
 25 30  1  0  0  0  0
 26 27  1  0  0  0  0
 26 32  1  0  0  0  0
 27 28  2  0  0  0  0
 27 45  1  0  0  0  0
 28 29  1  0  0  0  0
 28 46  1  0  0  0  0
 29 30  2  0  0  0  0
 29 47  1  0  0  0  0
 30 31  1  0  0  0  0
 31 48  1  0  0  0  0
 31 49  1  0  0  0  0
 31 50  1  0  0  0  0
 32 51  1  0  0  0  0
 32 52  1  0  0  0  0
 32 53  1  0  0  0  0
M  END
$$$$
