T2Z14
 OpenBabel08152610123D

 67 72  0  0  0  0  0  0  0  0999 V2000
    2.6300    0.5180    2.4440 C   0  0  0  0  0  0  0  0  0  0  0  0
    2.4810   -3.9260    2.4820 C   0  0  0  0  0  0  0  0  0  0  0  0
    4.5200   -4.4700    1.3010 C   0  0  0  0  0  0  0  0  0  0  0  0
    2.5040   -2.6370    1.9390 C   0  0  0  0  0  0  0  0  0  0  0  0
    3.4980   -4.8280    2.1760 C   0  0  0  0  0  0  0  0  0  0  0  0
    4.5390   -3.1880    0.7460 C   0  0  0  0  0  0  0  0  0  0  0  0
    3.5540   -2.2500    1.0970 C   0  0  0  0  0  0  0  0  0  0  0  0
    3.1960    0.2810    1.0940 C   0  0  0  0  0  0  0  0  0  0  0  0
    3.4970    1.1940    0.0980 C   0  0  0  0  0  0  0  0  0  0  0  0
    4.1530    0.5640   -0.9170 N   0  0  0  0  0  0  0  0  0  0  0  0
    4.3020   -0.7060   -0.5880 N   0  0  0  0  0  0  0  0  0  0  0  0
    3.6480   -0.9290    0.5830 N   0  0  0  0  0  0  0  0  0  0  0  0
    1.6650    6.8830    0.8200 C   0  0  0  0  0  0  0  0  0  0  0  0
    1.1420    7.8890    1.6350 C   0  0  0  0  0  0  0  0  0  0  0  0
    0.8310    7.6230    2.9650 C   0  0  0  0  0  0  0  0  0  0  0  0
    1.0250    6.3440    3.4830 C   0  0  0  0  0  0  0  0  0  0  0  0
    1.5360    5.3270    2.6730 C   0  0  0  0  0  0  0  0  0  0  0  0
    1.8700    5.5940    1.3380 C   0  0  0  0  0  0  0  0  0  0  0  0
    2.9830    4.6910   -0.7170 C   0  0  0  0  0  0  0  0  0  0  0  0
    3.5610    3.4840   -1.0450 C   0  0  0  0  0  0  0  0  0  0  0  0
    3.2260    2.6360    0.0370 C   0  0  0  0  0  0  0  0  0  0  0  0
    2.5760    3.2950    1.0060 N   0  0  0  0  0  0  0  0  0  0  0  0
    2.4500    4.5680    0.5410 N   0  0  0  0  0  0  0  0  0  0  0  0
    8.8130    5.6020   -9.5430 N   0  0  0  0  0  0  0  0  0  0  0  0
    8.5190    4.7480  -10.6680 C   0  0  0  0  0  0  0  0  0  0  0  0
   10.0200    6.1580   -9.2040 C   0  0  0  0  0  0  0  0  0  0  0  0
   10.0650    6.4750   -7.9170 N   0  0  0  0  0  0  0  0  0  0  0  0
    8.8690    6.0440   -7.4300 C   0  0  0  0  0  0  0  0  0  0  0  0
    8.5220    5.7940   -6.1210 N   0  0  0  0  0  0  0  0  0  0  0  0
    8.5500    6.8510   -5.1390 C   0  0  0  0  0  0  0  0  0  0  0  0
    7.5580    4.8010   -5.9090 C   0  0  0  0  0  0  0  0  0  0  0  0
    7.5100    4.1410   -4.8660 O   0  0  0  0  0  0  0  0  0  0  0  0
    6.6140    4.6250   -6.9330 N   0  0  0  0  0  0  0  0  0  0  0  0
    6.7260    5.1700   -8.2000 C   0  0  0  0  0  0  0  0  0  0  0  0
    5.8490    5.1760   -9.0530 O   0  0  0  0  0  0  0  0  0  0  0  0
    8.0370    5.6480   -8.4280 C   0  0  0  0  0  0  0  0  0  0  0  0
    5.4990    3.7420   -6.6750 C   0  0  0  0  0  0  0  0  0  0  0  0
    4.6310    4.3130   -5.5660 C   0  0  0  0  0  0  0  0  0  0  0  0
    4.8160    3.6120   -4.3790 N   0  0  0  0  0  0  0  0  0  0  0  0
    3.9320    5.3010   -5.7190 O   0  0  0  0  0  0  0  0  0  0  0  0
    4.3010    3.2070   -2.2460 C   0  0  0  0  0  0  0  0  0  0  0  0
    4.0830    3.9460   -3.2840 N   0  0  0  0  0  0  0  0  0  0  0  0
    3.4910   -6.5500    2.9560 Br  0  0  0  0  0  0  0  0  0  0  0  0
    2.7660   -0.3220    3.1270 H   0  0  0  0  0  0  0  0  0  0  0  0
    1.5630    0.7500    2.3770 H   0  0  0  0  0  0  0  0  0  0  0  0
    3.1380    1.3640    2.9180 H   0  0  0  0  0  0  0  0  0  0  0  0
    1.6660   -4.2150    3.1410 H   0  0  0  0  0  0  0  0  0  0  0  0
    5.3120   -5.1720    1.0520 H   0  0  0  0  0  0  0  0  0  0  0  0
    1.6710   -1.9750    2.1580 H   0  0  0  0  0  0  0  0  0  0  0  0
    5.3560   -2.9220    0.0750 H   0  0  0  0  0  0  0  0  0  0  0  0
    1.8830    7.1320   -0.2150 H   0  0  0  0  0  0  0  0  0  0  0  0
    0.9790    8.8850    1.2300 H   0  0  0  0  0  0  0  0  0  0  0  0
    0.4360    8.4120    3.6010 H   0  0  0  0  0  0  0  0  0  0  0  0
    0.7830    6.1380    4.5210 H   0  0  0  0  0  0  0  0  0  0  0  0
    1.6870    4.3390    3.1040 H   0  0  0  0  0  0  0  0  0  0  0  0
    2.9690    5.6210   -1.2700 H   0  0  0  0  0  0  0  0  0  0  0  0
    9.4140    4.6060  -11.2740 H   0  0  0  0  0  0  0  0  0  0  0  0
    7.7060    5.1900  -11.2470 H   0  0  0  0  0  0  0  0  0  0  0  0
    8.2040    3.7760  -10.2680 H   0  0  0  0  0  0  0  0  0  0  0  0
   10.8410    6.2450   -9.9050 H   0  0  0  0  0  0  0  0  0  0  0  0
    9.4890    7.4050   -5.1620 H   0  0  0  0  0  0  0  0  0  0  0  0
    8.3550    6.4550   -4.1390 H   0  0  0  0  0  0  0  0  0  0  0  0
    7.7170    7.5260   -5.3830 H   0  0  0  0  0  0  0  0  0  0  0  0
    5.8970    2.7560   -6.4130 H   0  0  0  0  0  0  0  0  0  0  0  0
    4.8710    3.6160   -7.5610 H   0  0  0  0  0  0  0  0  0  0  0  0
    5.6770    3.0780   -4.2500 H   0  0  0  0  0  0  0  0  0  0  0  0
    5.0210    2.3730   -2.2500 H   0  0  0  0  0  0  0  0  0  0  0  0
  1  8  1  0  0  0  0
  1 44  1  0  0  0  0
  1 45  1  0  0  0  0
  1 46  1  0  0  0  0
  2  4  2  0  0  0  0
  2  5  1  0  0  0  0
  2 47  1  0  0  0  0
  3  5  2  0  0  0  0
  3  6  1  0  0  0  0
  3 48  1  0  0  0  0
  4  7  1  0  0  0  0
  4 49  1  0  0  0  0
  5 43  1  0  0  0  0
  6  7  2  0  0  0  0
  6 50  1  0  0  0  0
  7 12  1  0  0  0  0
  8 12  1  0  0  0  0
  8  9  2  0  0  0  0
  9 21  1  0  0  0  0
  9 10  1  0  0  0  0
 10 11  2  0  0  0  0
 11 12  1  0  0  0  0
 13 18  2  0  0  0  0
 13 14  1  0  0  0  0
 13 51  1  0  0  0  0
 14 15  2  0  0  0  0
 14 52  1  0  0  0  0
 15 16  1  0  0  0  0
 15 53  1  0  0  0  0
 16 17  2  0  0  0  0
 16 54  1  0  0  0  0
 17 18  1  0  0  0  0
 17 55  1  0  0  0  0
 18 23  1  0  0  0  0
 19 23  1  0  0  0  0
 19 20  2  0  0  0  0
 19 56  1  0  0  0  0
 20 41  1  0  0  0  0
 20 21  1  0  0  0  0
 21 22  2  0  0  0  0
 22 23  1  0  0  0  0
 24 25  1  0  0  0  0
 24 26  1  0  0  0  0
 24 36  1  0  0  0  0
 25 57  1  0  0  0  0
 25 58  1  0  0  0  0
 25 59  1  0  0  0  0
 26 27  2  0  0  0  0
 26 60  1  0  0  0  0
 27 28  1  0  0  0  0
 28 29  1  0  0  0  0
 28 36  2  0  0  0  0
 29 30  1  0  0  0  0
 29 31  1  0  0  0  0
 30 61  1  0  0  0  0
 30 62  1  0  0  0  0
 30 63  1  0  0  0  0
 31 32  2  0  0  0  0
 31 33  1  0  0  0  0
 33 34  1  0  0  0  0
 33 37  1  0  0  0  0
 34 35  2  0  0  0  0
 34 36  1  0  0  0  0
 37 38  1  0  0  0  0
 37 64  1  0  0  0  0
 37 65  1  0  0  0  0
 38 39  1  0  0  0  0
 38 40  2  0  0  0  0
 39 42  1  0  0  0  0
 39 66  1  0  0  0  0
 41 42  2  0  0  0  0
 41 67  1  0  0  0  0
M  END
$$$$
