T2Z5
 OpenBabel08152610123D

 51 55  0  0  0  0  0  0  0  0999 V2000
    2.6940   -0.9450    6.2180 S   0  0  0  0  0  0  0  0  0  0  0  0
    2.5580   -0.4390    4.5680 C   0  0  0  0  0  0  0  0  0  0  0  0
    3.4820    0.4900    4.2330 N   0  0  0  0  0  0  0  0  0  0  0  0
    4.3140    0.8610    5.2720 C   0  0  0  0  0  0  0  0  0  0  0  0
    4.0130    0.2150    6.4120 C   0  0  0  0  0  0  0  0  0  0  0  0
    1.6510   -0.6070    3.6500 N   0  0  0  0  0  0  0  0  0  0  0  0
    2.0040    0.3100    2.6560 C   0  0  0  0  0  0  0  0  0  0  0  0
    3.2470    0.9050    2.9310 C   0  0  0  0  0  0  0  0  0  0  0  0
    0.9690    0.5800    1.6440 C   0  0  0  0  0  0  0  0  0  0  0  0
    0.8240    1.7970    0.9730 C   0  0  0  0  0  0  0  0  0  0  0  0
   -0.3420    2.0850    0.2460 C   0  0  0  0  0  0  0  0  0  0  0  0
   -1.3870    1.1660    0.2000 C   0  0  0  0  0  0  0  0  0  0  0  0
   -1.2580   -0.0670    0.8240 C   0  0  0  0  0  0  0  0  0  0  0  0
   -0.0820   -0.3590    1.5230 C   0  0  0  0  0  0  0  0  0  0  0  0
    8.9380   -0.2900    4.1520 N   0  0  0  0  0  0  0  0  0  0  0  0
    8.8370   -1.6610    3.7170 C   0  0  0  0  0  0  0  0  0  0  0  0
    9.4520    0.1480    5.3430 C   0  0  0  0  0  0  0  0  0  0  0  0
    9.4210    1.4640    5.4300 N   0  0  0  0  0  0  0  0  0  0  0  0
    8.8710    1.8700    4.2530 C   0  0  0  0  0  0  0  0  0  0  0  0
    8.6770    3.1620    3.8340 N   0  0  0  0  0  0  0  0  0  0  0  0
    9.1300    4.2940    4.6220 C   0  0  0  0  0  0  0  0  0  0  0  0
    8.1480    3.3900    2.5580 C   0  0  0  0  0  0  0  0  0  0  0  0
    8.1740    4.5130    2.0560 O   0  0  0  0  0  0  0  0  0  0  0  0
    7.5650    2.2880    1.9010 N   0  0  0  0  0  0  0  0  0  0  0  0
    7.9080    0.9640    2.1960 C   0  0  0  0  0  0  0  0  0  0  0  0
    7.6970    0.0150    1.4480 O   0  0  0  0  0  0  0  0  0  0  0  0
    8.5330    0.8160    3.4620 C   0  0  0  0  0  0  0  0  0  0  0  0
    6.9560    2.4990    0.5870 C   0  0  0  0  0  0  0  0  0  0  0  0
    5.9550    3.6410    0.4510 C   0  0  0  0  0  0  0  0  0  0  0  0
    4.6720    3.5580    0.9310 N   0  0  0  0  0  0  0  0  0  0  0  0
    6.2740    4.6940   -0.1140 O   0  0  0  0  0  0  0  0  0  0  0  0
    4.1360    1.8550    2.3070 C   0  0  0  0  0  0  0  0  0  0  0  0
    3.9110    2.4410    1.1760 N   0  0  0  0  0  0  0  0  0  0  0  0
   -3.0110    1.6190   -0.6540 Br  0  0  0  0  0  0  0  0  0  0  0  0
    5.0530    1.6400    5.1600 H   0  0  0  0  0  0  0  0  0  0  0  0
    4.4730    0.3870    7.3770 H   0  0  0  0  0  0  0  0  0  0  0  0
    1.5670    2.5800    1.0520 H   0  0  0  0  0  0  0  0  0  0  0  0
   -0.4410    3.0530   -0.2380 H   0  0  0  0  0  0  0  0  0  0  0  0
   -2.0710   -0.7880    0.8200 H   0  0  0  0  0  0  0  0  0  0  0  0
   -0.0260   -1.3120    2.0490 H   0  0  0  0  0  0  0  0  0  0  0  0
    9.3580   -2.3080    4.4260 H   0  0  0  0  0  0  0  0  0  0  0  0
    9.2990   -1.7530    2.7310 H   0  0  0  0  0  0  0  0  0  0  0  0
    7.7780   -1.9280    3.6750 H   0  0  0  0  0  0  0  0  0  0  0  0
    9.8350   -0.5230    6.1020 H   0  0  0  0  0  0  0  0  0  0  0  0
    9.3490    4.0030    5.6540 H   0  0  0  0  0  0  0  0  0  0  0  0
    8.3430    5.0560    4.6340 H   0  0  0  0  0  0  0  0  0  0  0  0
   10.0240    4.7220    4.1600 H   0  0  0  0  0  0  0  0  0  0  0  0
    6.4430    1.5900    0.2550 H   0  0  0  0  0  0  0  0  0  0  0  0
    7.7690    2.6770   -0.1280 H   0  0  0  0  0  0  0  0  0  0  0  0
    4.1290    4.3310    0.5460 H   0  0  0  0  0  0  0  0  0  0  0  0
    5.0370    2.1260    2.8830 H   0  0  0  0  0  0  0  0  0  0  0  0
  1  2  1  0  0  0  0
  1  5  1  0  0  0  0
  2  3  1  0  0  0  0
  2  6  2  0  0  0  0
  3  4  1  0  0  0  0
  3  8  1  0  0  0  0
  4  5  2  0  0  0  0
  4 35  1  0  0  0  0
  5 36  1  0  0  0  0
  6  7  1  0  0  0  0
  7  8  2  0  0  0  0
  7  9  1  0  0  0  0
  8 32  1  0  0  0  0
  9 10  2  0  0  0  0
  9 14  1  0  0  0  0
 10 11  1  0  0  0  0
 10 37  1  0  0  0  0
 11 12  2  0  0  0  0
 11 38  1  0  0  0  0
 12 13  1  0  0  0  0
 12 34  1  0  0  0  0
 13 14  2  0  0  0  0
 13 39  1  0  0  0  0
 14 40  1  0  0  0  0
 15 16  1  0  0  0  0
 15 17  1  0  0  0  0
 15 27  1  0  0  0  0
 16 41  1  0  0  0  0
 16 42  1  0  0  0  0
 16 43  1  0  0  0  0
 17 18  2  0  0  0  0
 17 44  1  0  0  0  0
 18 19  1  0  0  0  0
 19 20  1  0  0  0  0
 19 27  2  0  0  0  0
 20 21  1  0  0  0  0
 20 22  1  0  0  0  0
 21 45  1  0  0  0  0
 21 46  1  0  0  0  0
 21 47  1  0  0  0  0
 22 23  2  0  0  0  0
 22 24  1  0  0  0  0
 24 25  1  0  0  0  0
 24 28  1  0  0  0  0
 25 26  2  0  0  0  0
 25 27  1  0  0  0  0
 28 29  1  0  0  0  0
 28 48  1  0  0  0  0
 28 49  1  0  0  0  0
 29 30  1  0  0  0  0
 29 31  2  0  0  0  0
 30 33  1  0  0  0  0
 30 50  1  0  0  0  0
 32 33  2  0  0  0  0
 32 51  1  0  0  0  0
M  END
$$$$
