T2Z6
 OpenBabel08152610123D

 51 55  0  0  0  0  0  0  0  0999 V2000
    4.4850   -0.2360    6.8520 S   0  0  0  0  0  0  0  0  0  0  0  0
    3.5070    0.4710    5.6080 C   0  0  0  0  0  0  0  0  0  0  0  0
    4.2590    1.0130    4.6210 N   0  0  0  0  0  0  0  0  0  0  0  0
    5.6230    0.9370    4.8220 C   0  0  0  0  0  0  0  0  0  0  0  0
    5.9200    0.3240    5.9810 C   0  0  0  0  0  0  0  0  0  0  0  0
    2.2500    0.7600    5.5040 N   0  0  0  0  0  0  0  0  0  0  0  0
    2.1780    1.5830    4.3700 C   0  0  0  0  0  0  0  0  0  0  0  0
    3.4170    1.6150    3.7060 C   0  0  0  0  0  0  0  0  0  0  0  0
    0.9120    2.2990    4.1630 C   0  0  0  0  0  0  0  0  0  0  0  0
    0.7450    3.4060    3.3310 C   0  0  0  0  0  0  0  0  0  0  0  0
   -0.4190    4.1910    3.4000 C   0  0  0  0  0  0  0  0  0  0  0  0
   -1.4340    3.8710    4.2990 C   0  0  0  0  0  0  0  0  0  0  0  0
   -1.3230    2.7410    5.0950 C   0  0  0  0  0  0  0  0  0  0  0  0
   -0.1660    1.9600    5.0140 C   0  0  0  0  0  0  0  0  0  0  0  0
   10.5140    7.7550    0.9120 N   0  0  0  0  0  0  0  0  0  0  0  0
   11.1810    7.9540   -0.3480 C   0  0  0  0  0  0  0  0  0  0  0  0
   10.8640    8.3480    2.0980 C   0  0  0  0  0  0  0  0  0  0  0  0
   10.0230    8.0400    3.0630 N   0  0  0  0  0  0  0  0  0  0  0  0
    9.1000    7.2370    2.4620 C   0  0  0  0  0  0  0  0  0  0  0  0
    7.9530    6.7490    3.0350 N   0  0  0  0  0  0  0  0  0  0  0  0
    7.6020    7.0240    4.4110 C   0  0  0  0  0  0  0  0  0  0  0  0
    7.0320    6.0960    2.2260 C   0  0  0  0  0  0  0  0  0  0  0  0
    5.8680    5.9220    2.5940 O   0  0  0  0  0  0  0  0  0  0  0  0
    7.4740    5.6510    0.9650 N   0  0  0  0  0  0  0  0  0  0  0  0
    8.5850    6.1900    0.3040 C   0  0  0  0  0  0  0  0  0  0  0  0
    8.8140    6.0280   -0.8900 O   0  0  0  0  0  0  0  0  0  0  0  0
    9.3950    7.0080    1.1470 C   0  0  0  0  0  0  0  0  0  0  0  0
    6.5070    4.8960    0.1720 C   0  0  0  0  0  0  0  0  0  0  0  0
    5.8560    3.7490    0.9750 C   0  0  0  0  0  0  0  0  0  0  0  0
    4.4520    3.8420    1.0060 N   0  0  0  0  0  0  0  0  0  0  0  0
    6.5310    2.9030    1.5620 O   0  0  0  0  0  0  0  0  0  0  0  0
    3.9850    2.1540    2.5000 C   0  0  0  0  0  0  0  0  0  0  0  0
    3.6750    3.3120    2.0230 N   0  0  0  0  0  0  0  0  0  0  0  0
   -2.8060    4.8960    4.4560 Cl  0  0  0  0  0  0  0  0  0  0  0  0
    6.3160    1.3990    4.1340 H   0  0  0  0  0  0  0  0  0  0  0  0
    6.9120    0.2000    6.3930 H   0  0  0  0  0  0  0  0  0  0  0  0
    1.5210    3.7330    2.6540 H   0  0  0  0  0  0  0  0  0  0  0  0
   -0.5040    5.0770    2.7770 H   0  0  0  0  0  0  0  0  0  0  0  0
   -2.0990    2.4790    5.8080 H   0  0  0  0  0  0  0  0  0  0  0  0
   -0.0860    1.1030    5.6830 H   0  0  0  0  0  0  0  0  0  0  0  0
   11.9020    8.7720   -0.2520 H   0  0  0  0  0  0  0  0  0  0  0  0
   10.4390    8.2210   -1.1050 H   0  0  0  0  0  0  0  0  0  0  0  0
   11.7010    7.0320   -0.6170 H   0  0  0  0  0  0  0  0  0  0  0  0
   11.7200    9.0040    2.2010 H   0  0  0  0  0  0  0  0  0  0  0  0
    8.4080    7.5280    4.9470 H   0  0  0  0  0  0  0  0  0  0  0  0
    7.3890    6.0690    4.9080 H   0  0  0  0  0  0  0  0  0  0  0  0
    6.6960    7.6360    4.4380 H   0  0  0  0  0  0  0  0  0  0  0  0
    6.9970    4.4400   -0.6950 H   0  0  0  0  0  0  0  0  0  0  0  0
    5.7560    5.6000   -0.2010 H   0  0  0  0  0  0  0  0  0  0  0  0
    4.0680    4.7340    0.7010 H   0  0  0  0  0  0  0  0  0  0  0  0
    4.7660    1.5290    2.0340 H   0  0  0  0  0  0  0  0  0  0  0  0
  1  2  1  0  0  0  0
  1  5  1  0  0  0  0
  2  3  1  0  0  0  0
  2  6  2  0  0  0  0
  3  4  1  0  0  0  0
  3  8  1  0  0  0  0
  4  5  2  0  0  0  0
  4 35  1  0  0  0  0
  5 36  1  0  0  0  0
  6  7  1  0  0  0  0
  7  8  2  0  0  0  0
  7  9  1  0  0  0  0
  8 32  1  0  0  0  0
  9 10  2  0  0  0  0
  9 14  1  0  0  0  0
 10 11  1  0  0  0  0
 10 37  1  0  0  0  0
 11 12  2  0  0  0  0
 11 38  1  0  0  0  0
 12 13  1  0  0  0  0
 12 34  1  0  0  0  0
 13 14  2  0  0  0  0
 13 39  1  0  0  0  0
 14 40  1  0  0  0  0
 15 16  1  0  0  0  0
 15 17  1  0  0  0  0
 15 27  1  0  0  0  0
 16 41  1  0  0  0  0
 16 42  1  0  0  0  0
 16 43  1  0  0  0  0
 17 18  2  0  0  0  0
 17 44  1  0  0  0  0
 18 19  1  0  0  0  0
 19 20  1  0  0  0  0
 19 27  2  0  0  0  0
 20 21  1  0  0  0  0
 20 22  1  0  0  0  0
 21 45  1  0  0  0  0
 21 46  1  0  0  0  0
 21 47  1  0  0  0  0
 22 23  2  0  0  0  0
 22 24  1  0  0  0  0
 24 25  1  0  0  0  0
 24 28  1  0  0  0  0
 25 26  2  0  0  0  0
 25 27  1  0  0  0  0
 28 29  1  0  0  0  0
 28 48  1  0  0  0  0
 28 49  1  0  0  0  0
 29 30  1  0  0  0  0
 29 31  2  0  0  0  0
 30 33  1  0  0  0  0
 30 50  1  0  0  0  0
 32 33  2  0  0  0  0
 32 51  1  0  0  0  0
M  END
$$$$
