T2Z9
 OpenBabel08152610123D

 67 72  0  0  0  0  0  0  0  0999 V2000
    2.7020    0.3650    2.5040 C   0  0  0  0  0  0  0  0  0  0  0  0
    3.6610   -6.5160    3.0190 Cl  0  0  0  0  0  0  0  0  0  0  0  0
    2.6100   -4.0700    2.5800 C   0  0  0  0  0  0  0  0  0  0  0  0
    4.6540   -4.5980    1.4020 C   0  0  0  0  0  0  0  0  0  0  0  0
    2.6120   -2.7880    2.0200 C   0  0  0  0  0  0  0  0  0  0  0  0
    3.6400   -4.9610    2.2860 C   0  0  0  0  0  0  0  0  0  0  0  0
    4.6540   -3.3230    0.8300 C   0  0  0  0  0  0  0  0  0  0  0  0
    3.6560   -2.3960    1.1730 C   0  0  0  0  0  0  0  0  0  0  0  0
    3.2690    0.1290    1.1550 C   0  0  0  0  0  0  0  0  0  0  0  0
    3.5640    1.0420    0.1590 C   0  0  0  0  0  0  0  0  0  0  0  0
    4.2300    0.4160   -0.8540 N   0  0  0  0  0  0  0  0  0  0  0  0
    4.3890   -0.8530   -0.5210 N   0  0  0  0  0  0  0  0  0  0  0  0
    3.7340   -1.0780    0.6490 N   0  0  0  0  0  0  0  0  0  0  0  0
    1.7300    6.7280    0.8760 C   0  0  0  0  0  0  0  0  0  0  0  0
    1.2150    7.7390    1.6960 C   0  0  0  0  0  0  0  0  0  0  0  0
    0.9060    7.4740    3.0220 C   0  0  0  0  0  0  0  0  0  0  0  0
    1.0930    6.1940    3.5460 C   0  0  0  0  0  0  0  0  0  0  0  0
    1.6050    5.1750    2.7340 C   0  0  0  0  0  0  0  0  0  0  0  0
    1.9310    5.4390    1.4040 C   0  0  0  0  0  0  0  0  0  0  0  0
    3.0450    4.5410   -0.6520 C   0  0  0  0  0  0  0  0  0  0  0  0
    3.6120    3.3280   -0.9850 C   0  0  0  0  0  0  0  0  0  0  0  0
    3.2840    2.4830    0.0970 C   0  0  0  0  0  0  0  0  0  0  0  0
    2.6360    3.1430    1.0670 N   0  0  0  0  0  0  0  0  0  0  0  0
    2.5120    4.4130    0.6030 N   0  0  0  0  0  0  0  0  0  0  0  0
    8.8350    5.4840   -9.4880 N   0  0  0  0  0  0  0  0  0  0  0  0
    8.5460    4.6560  -10.6330 C   0  0  0  0  0  0  0  0  0  0  0  0
   10.0300    6.0600   -9.1420 C   0  0  0  0  0  0  0  0  0  0  0  0
   10.0670    6.3830   -7.8570 N   0  0  0  0  0  0  0  0  0  0  0  0
    8.8800    5.9170   -7.3740 C   0  0  0  0  0  0  0  0  0  0  0  0
    8.5260    5.6840   -6.0630 N   0  0  0  0  0  0  0  0  0  0  0  0
    8.6080    6.7220   -5.0690 C   0  0  0  0  0  0  0  0  0  0  0  0
    7.5670    4.6880   -5.8420 C   0  0  0  0  0  0  0  0  0  0  0  0
    7.5080    4.0540   -4.7830 O   0  0  0  0  0  0  0  0  0  0  0  0
    6.6410    4.4790   -6.8730 N   0  0  0  0  0  0  0  0  0  0  0  0
    6.7600    4.9940   -8.1490 C   0  0  0  0  0  0  0  0  0  0  0  0
    5.8970    4.9600   -9.0170 O   0  0  0  0  0  0  0  0  0  0  0  0
    8.0650    5.5010   -8.3680 C   0  0  0  0  0  0  0  0  0  0  0  0
    5.5350    3.5830   -6.6150 C   0  0  0  0  0  0  0  0  0  0  0  0
    4.6580    4.1520   -5.5130 C   0  0  0  0  0  0  0  0  0  0  0  0
    4.8500    3.4720   -4.3170 N   0  0  0  0  0  0  0  0  0  0  0  0
    3.9340    5.1240   -5.6810 O   0  0  0  0  0  0  0  0  0  0  0  0
    4.3480    3.0590   -2.1880 C   0  0  0  0  0  0  0  0  0  0  0  0
    4.1170    3.7990   -3.2230 N   0  0  0  0  0  0  0  0  0  0  0  0
    2.8630   -0.4640    3.1940 H   0  0  0  0  0  0  0  0  0  0  0  0
    1.6290    0.5700    2.4390 H   0  0  0  0  0  0  0  0  0  0  0  0
    3.1890    1.2300    2.9690 H   0  0  0  0  0  0  0  0  0  0  0  0
    1.8030   -4.3660    3.2450 H   0  0  0  0  0  0  0  0  0  0  0  0
    5.4540   -5.2950    1.1650 H   0  0  0  0  0  0  0  0  0  0  0  0
    1.7710   -2.1350    2.2340 H   0  0  0  0  0  0  0  0  0  0  0  0
    5.4660   -3.0540    0.1570 H   0  0  0  0  0  0  0  0  0  0  0  0
    1.9450    6.9770   -0.1550 H   0  0  0  0  0  0  0  0  0  0  0  0
    1.0580    8.7370    1.2860 H   0  0  0  0  0  0  0  0  0  0  0  0
    0.5140    8.2680    3.6570 H   0  0  0  0  0  0  0  0  0  0  0  0
    0.8500    5.9890    4.5850 H   0  0  0  0  0  0  0  0  0  0  0  0
    1.7540    4.1870    3.1690 H   0  0  0  0  0  0  0  0  0  0  0  0
    3.0400    5.4710   -1.2020 H   0  0  0  0  0  0  0  0  0  0  0  0
    9.4420    4.5410  -11.2440 H   0  0  0  0  0  0  0  0  0  0  0  0
    7.7300    5.1050  -11.2000 H   0  0  0  0  0  0  0  0  0  0  0  0
    8.2420    3.6710  -10.2600 H   0  0  0  0  0  0  0  0  0  0  0  0
   10.8510    6.1600   -9.8430 H   0  0  0  0  0  0  0  0  0  0  0  0
    9.5620    7.2560   -5.1140 H   0  0  0  0  0  0  0  0  0  0  0  0
    8.4340    6.3200   -4.0690 H   0  0  0  0  0  0  0  0  0  0  0  0
    7.7850    7.4210   -5.2810 H   0  0  0  0  0  0  0  0  0  0  0  0
    5.9380    2.6020   -6.3440 H   0  0  0  0  0  0  0  0  0  0  0  0
    4.9080    3.4450   -7.5000 H   0  0  0  0  0  0  0  0  0  0  0  0
    5.7270    2.9670   -4.1840 H   0  0  0  0  0  0  0  0  0  0  0  0
    5.0760    2.2310   -2.1980 H   0  0  0  0  0  0  0  0  0  0  0  0
  1  9  1  0  0  0  0
  1 44  1  0  0  0  0
  1 45  1  0  0  0  0
  1 46  1  0  0  0  0
  2  6  1  0  0  0  0
  3  5  2  0  0  0  0
  3  6  1  0  0  0  0
  3 47  1  0  0  0  0
  4  6  2  0  0  0  0
  4  7  1  0  0  0  0
  4 48  1  0  0  0  0
  5  8  1  0  0  0  0
  5 49  1  0  0  0  0
  7  8  2  0  0  0  0
  7 50  1  0  0  0  0
  8 13  1  0  0  0  0
  9 13  1  0  0  0  0
  9 10  2  0  0  0  0
 10 22  1  0  0  0  0
 10 11  1  0  0  0  0
 11 12  2  0  0  0  0
 12 13  1  0  0  0  0
 14 19  2  0  0  0  0
 14 15  1  0  0  0  0
 14 51  1  0  0  0  0
 15 16  2  0  0  0  0
 15 52  1  0  0  0  0
 16 17  1  0  0  0  0
 16 53  1  0  0  0  0
 17 18  2  0  0  0  0
 17 54  1  0  0  0  0
 18 19  1  0  0  0  0
 18 55  1  0  0  0  0
 19 24  1  0  0  0  0
 20 24  1  0  0  0  0
 20 21  2  0  0  0  0
 20 56  1  0  0  0  0
 21 42  1  0  0  0  0
 21 22  1  0  0  0  0
 22 23  2  0  0  0  0
 23 24  1  0  0  0  0
 25 26  1  0  0  0  0
 25 27  1  0  0  0  0
 25 37  1  0  0  0  0
 26 57  1  0  0  0  0
 26 58  1  0  0  0  0
 26 59  1  0  0  0  0
 27 28  2  0  0  0  0
 27 60  1  0  0  0  0
 28 29  1  0  0  0  0
 29 30  1  0  0  0  0
 29 37  2  0  0  0  0
 30 31  1  0  0  0  0
 30 32  1  0  0  0  0
 31 61  1  0  0  0  0
 31 62  1  0  0  0  0
 31 63  1  0  0  0  0
 32 33  2  0  0  0  0
 32 34  1  0  0  0  0
 34 35  1  0  0  0  0
 34 38  1  0  0  0  0
 35 36  2  0  0  0  0
 35 37  1  0  0  0  0
 38 39  1  0  0  0  0
 38 64  1  0  0  0  0
 38 65  1  0  0  0  0
 39 40  1  0  0  0  0
 39 41  2  0  0  0  0
 40 43  1  0  0  0  0
 40 66  1  0  0  0  0
 42 43  2  0  0  0  0
 42 67  1  0  0  0  0
M  END
$$$$
