X1V11
 OpenBabel08152610123D

 38 40  0  0  0  0  0  0  0  0999 V2000
   -1.7440    0.8750   -0.2260 S   0  0  0  0  0  0  0  0  0  0  0  0
   -2.1110   -0.8020   -0.0290 C   0  0  0  0  0  0  0  0  0  0  0  0
   -1.0630   -1.5790    0.1340 N   0  0  0  0  0  0  0  0  0  0  0  0
    0.1030   -0.8320    0.0960 C   0  0  0  0  0  0  0  0  0  0  0  0
   -0.0710    0.5380   -0.1000 C   0  0  0  0  0  0  0  0  0  0  0  0
    1.0070    1.4320   -0.1680 C   0  0  0  0  0  0  0  0  0  0  0  0
    2.2940    0.9050   -0.0150 C   0  0  0  0  0  0  0  0  0  0  0  0
    2.5060   -0.4600    0.1730 C   0  0  0  0  0  0  0  0  0  0  0  0
    1.4140   -1.3340    0.2340 C   0  0  0  0  0  0  0  0  0  0  0  0
    3.6740    2.0090   -0.0780 S   0  0  0  0  0  0  0  0  0  0  0  0
    4.8660    1.2620   -0.4090 O   0  0  0  0  0  0  0  0  0  0  0  0
    3.2920    3.2140   -0.7760 O   0  0  0  0  0  0  0  0  0  0  0  0
    3.8240    2.4330    1.5380 N   0  0  0  0  0  0  0  0  0  0  0  0
   -3.3870   -1.2700   -0.0450 N   0  0  0  0  0  0  0  0  0  0  0  0
   -4.4660   -0.4610   -0.1920 N   0  0  0  0  0  0  0  0  0  0  0  0
   -5.6330   -1.0160   -0.1640 C   0  0  0  0  0  0  0  0  0  0  0  0
   -6.8420   -0.1810   -0.3070 C   0  0  0  0  0  0  0  0  0  0  0  0
   -6.7170    1.2020   -0.4850 C   0  0  0  0  0  0  0  0  0  0  0  0
   -7.8540    2.0030   -0.6040 C   0  0  0  0  0  0  0  0  0  0  0  0
   -9.1230    1.4260   -0.5410 C   0  0  0  0  0  0  0  0  0  0  0  0
   -9.2400    0.0420   -0.3710 C   0  0  0  0  0  0  0  0  0  0  0  0
   -8.1050   -0.7670   -0.2540 C   0  0  0  0  0  0  0  0  0  0  0  0
  -10.3100    2.1010   -0.6270 O   0  0  0  0  0  0  0  0  0  0  0  0
  -10.2310    3.5130   -0.7870 C   0  0  0  0  0  0  0  0  0  0  0  0
    0.8400    2.4940   -0.3250 H   0  0  0  0  0  0  0  0  0  0  0  0
    3.5140   -0.8580    0.2790 H   0  0  0  0  0  0  0  0  0  0  0  0
    1.5640   -2.3990    0.3890 H   0  0  0  0  0  0  0  0  0  0  0  0
    4.7230    2.1170    1.9030 H   0  0  0  0  0  0  0  0  0  0  0  0
    3.6520    3.4320    1.6570 H   0  0  0  0  0  0  0  0  0  0  0  0
   -3.4910   -2.2760    0.0510 H   0  0  0  0  0  0  0  0  0  0  0  0
   -5.7700   -2.1030   -0.0290 H   0  0  0  0  0  0  0  0  0  0  0  0
   -5.7340    1.6670   -0.5280 H   0  0  0  0  0  0  0  0  0  0  0  0
   -7.7100    3.0690   -0.7410 H   0  0  0  0  0  0  0  0  0  0  0  0
  -10.2300   -0.4090   -0.3260 H   0  0  0  0  0  0  0  0  0  0  0  0
   -8.2230   -1.8380   -0.1180 H   0  0  0  0  0  0  0  0  0  0  0  0
  -11.2500    3.9100   -0.7760 H   0  0  0  0  0  0  0  0  0  0  0  0
   -9.7800    3.7720   -1.7500 H   0  0  0  0  0  0  0  0  0  0  0  0
   -9.6870    3.9800    0.0420 H   0  0  0  0  0  0  0  0  0  0  0  0
  1  2  1  0  0  0  0
  1  5  1  0  0  0  0
  2  3  2  0  0  0  0
  2 14  1  0  0  0  0
  3  4  1  0  0  0  0
  4  5  2  0  0  0  0
  4  9  1  0  0  0  0
  5  6  1  0  0  0  0
  6  7  2  0  0  0  0
  6 25  1  0  0  0  0
  7  8  1  0  0  0  0
  7 10  1  0  0  0  0
  8  9  2  0  0  0  0
  8 26  1  0  0  0  0
  9 27  1  0  0  0  0
 10 11  2  0  0  0  0
 10 12  2  0  0  0  0
 10 13  1  0  0  0  0
 13 28  1  0  0  0  0
 13 29  1  0  0  0  0
 14 15  1  0  0  0  0
 14 30  1  0  0  0  0
 15 16  2  0  0  0  0
 16 17  1  0  0  0  0
 16 31  1  0  0  0  0
 17 18  2  0  0  0  0
 17 22  1  0  0  0  0
 18 19  1  0  0  0  0
 18 32  1  0  0  0  0
 19 20  2  0  0  0  0
 19 33  1  0  0  0  0
 20 21  1  0  0  0  0
 20 23  1  0  0  0  0
 21 22  2  0  0  0  0
 21 34  1  0  0  0  0
 22 35  1  0  0  0  0
 23 24  1  0  0  0  0
 24 36  1  0  0  0  0
 24 37  1  0  0  0  0
 24 38  1  0  0  0  0
M  END
$$$$
