X1V19
 OpenBabel08152610123D

 35 37  0  0  0  0  0  0  0  0999 V2000
   -1.7310    0.9370   -0.0380 S   0  0  0  0  0  0  0  0  0  0  0  0
   -2.1000   -0.7510   -0.0560 C   0  0  0  0  0  0  0  0  0  0  0  0
   -1.0480   -1.5410   -0.0240 N   0  0  0  0  0  0  0  0  0  0  0  0
    0.1220   -0.7940    0.0030 C   0  0  0  0  0  0  0  0  0  0  0  0
   -0.0530    0.5900   -0.0100 C   0  0  0  0  0  0  0  0  0  0  0  0
    1.0250    1.4900   -0.0090 C   0  0  0  0  0  0  0  0  0  0  0  0
    2.3160    0.9520    0.0030 C   0  0  0  0  0  0  0  0  0  0  0  0
    2.5300   -0.4270    0.0330 C   0  0  0  0  0  0  0  0  0  0  0  0
    1.4380   -1.3050    0.0330 C   0  0  0  0  0  0  0  0  0  0  0  0
    3.7030    2.0500   -0.0560 S   0  0  0  0  0  0  0  0  0  0  0  0
    4.9130    1.3040    0.1990 O   0  0  0  0  0  0  0  0  0  0  0  0
    3.5480    2.9180   -1.1990 O   0  0  0  0  0  0  0  0  0  0  0  0
    3.4840    3.0100    1.3060 N   0  0  0  0  0  0  0  0  0  0  0  0
   -3.3810   -1.2110   -0.1020 N   0  0  0  0  0  0  0  0  0  0  0  0
   -4.4680   -0.3910   -0.1040 N   0  0  0  0  0  0  0  0  0  0  0  0
   -5.6350   -0.9490   -0.1310 C   0  0  0  0  0  0  0  0  0  0  0  0
   -6.8600   -0.1150   -0.1210 C   0  0  0  0  0  0  0  0  0  0  0  0
   -6.7640    1.2820   -0.0960 C   0  0  0  0  0  0  0  0  0  0  0  0
   -7.9210    2.0680   -0.0720 C   0  0  0  0  0  0  0  0  0  0  0  0
   -9.1810    1.4620   -0.0730 C   0  0  0  0  0  0  0  0  0  0  0  0
   -9.2740    0.0630   -0.1000 C   0  0  0  0  0  0  0  0  0  0  0  0
   -8.1160   -0.7270   -0.1260 C   0  0  0  0  0  0  0  0  0  0  0  0
  -10.3700    2.2680   -0.0430 C   0  0  0  0  0  0  0  0  0  0  0  0
  -11.3300    2.9150   -0.0180 N   0  0  0  0  0  0  0  0  0  0  0  0
    0.8570    2.5620   -0.0300 H   0  0  0  0  0  0  0  0  0  0  0  0
    3.5400   -0.8330    0.0420 H   0  0  0  0  0  0  0  0  0  0  0  0
    1.5970   -2.3800    0.0440 H   0  0  0  0  0  0  0  0  0  0  0  0
    3.6280    3.9880    1.0460 H   0  0  0  0  0  0  0  0  0  0  0  0
    4.1040    2.7030    2.0550 H   0  0  0  0  0  0  0  0  0  0  0  0
   -3.4860   -2.2220   -0.1260 H   0  0  0  0  0  0  0  0  0  0  0  0
   -5.7620   -2.0460   -0.1560 H   0  0  0  0  0  0  0  0  0  0  0  0
   -5.7890    1.7660   -0.0930 H   0  0  0  0  0  0  0  0  0  0  0  0
   -7.8260    3.1530   -0.0510 H   0  0  0  0  0  0  0  0  0  0  0  0
  -10.2500   -0.4200   -0.0990 H   0  0  0  0  0  0  0  0  0  0  0  0
   -8.2110   -1.8090   -0.1460 H   0  0  0  0  0  0  0  0  0  0  0  0
  1  2  1  0  0  0  0
  1  5  1  0  0  0  0
  2  3  2  0  0  0  0
  2 14  1  0  0  0  0
  3  4  1  0  0  0  0
  4  5  2  0  0  0  0
  4  9  1  0  0  0  0
  5  6  1  0  0  0  0
  6  7  2  0  0  0  0
  6 25  1  0  0  0  0
  7  8  1  0  0  0  0
  7 10  1  0  0  0  0
  8  9  2  0  0  0  0
  8 26  1  0  0  0  0
  9 27  1  0  0  0  0
 10 11  2  0  0  0  0
 10 12  2  0  0  0  0
 10 13  1  0  0  0  0
 13 28  1  0  0  0  0
 13 29  1  0  0  0  0
 14 15  1  0  0  0  0
 14 30  1  0  0  0  0
 15 16  2  0  0  0  0
 16 17  1  0  0  0  0
 16 31  1  0  0  0  0
 17 18  2  0  0  0  0
 17 22  1  0  0  0  0
 18 19  1  0  0  0  0
 18 32  1  0  0  0  0
 19 20  2  0  0  0  0
 19 33  1  0  0  0  0
 20 21  1  0  0  0  0
 20 23  1  0  0  0  0
 21 22  2  0  0  0  0
 21 34  1  0  0  0  0
 22 35  1  0  0  0  0
 23 24  3  0  0  0  0
M  END
$$$$
