X1V20
 OpenBabel08152610123D

 33 35  0  0  0  0  0  0  0  0999 V2000
   -1.7390    0.8840   -0.0850 S   0  0  0  0  0  0  0  0  0  0  0  0
   -2.0710   -0.8090   -0.0700 C   0  0  0  0  0  0  0  0  0  0  0  0
   -1.0040   -1.5740    0.0020 N   0  0  0  0  0  0  0  0  0  0  0  0
    0.1480   -0.8150    0.0180 C   0  0  0  0  0  0  0  0  0  0  0  0
   -0.0500    0.5650   -0.0030 C   0  0  0  0  0  0  0  0  0  0  0  0
    1.0210    1.4730    0.0160 C   0  0  0  0  0  0  0  0  0  0  0  0
    2.3200    0.9490    0.0290 C   0  0  0  0  0  0  0  0  0  0  0  0
    2.5510   -0.4290    0.0580 C   0  0  0  0  0  0  0  0  0  0  0  0
    1.4670   -1.3160    0.0490 C   0  0  0  0  0  0  0  0  0  0  0  0
    3.6700    2.0890   -0.0750 S   0  0  0  0  0  0  0  0  0  0  0  0
    4.9090    1.3690    0.1680 O   0  0  0  0  0  0  0  0  0  0  0  0
    3.4770    2.9190   -1.2300 O   0  0  0  0  0  0  0  0  0  0  0  0
    3.4720    3.0700    1.2680 N   0  0  0  0  0  0  0  0  0  0  0  0
   -3.3580   -1.2500   -0.1180 N   0  0  0  0  0  0  0  0  0  0  0  0
   -3.7180   -2.4490    0.4130 N   0  0  0  0  0  0  0  0  0  0  0  0
   -4.9600   -2.7930    0.3090 C   0  0  0  0  0  0  0  0  0  0  0  0
   -5.4220   -4.0820    0.8510 C   0  0  0  0  0  0  0  0  0  0  0  0
   -4.5470   -4.9550    1.4980 C   0  0  0  0  0  0  0  0  0  0  0  0
   -5.0180   -6.1850    1.9470 C   0  0  0  0  0  0  0  0  0  0  0  0
   -6.3530   -6.4940    1.7340 C   0  0  0  0  0  0  0  0  0  0  0  0
   -7.2300   -5.6640    1.1230 N   0  0  0  0  0  0  0  0  0  0  0  0
   -6.7430   -4.4740    0.6920 C   0  0  0  0  0  0  0  0  0  0  0  0
    0.8530    2.5440   -0.0140 H   0  0  0  0  0  0  0  0  0  0  0  0
    3.5620   -0.8350    0.0650 H   0  0  0  0  0  0  0  0  0  0  0  0
    1.6240   -2.3920    0.0470 H   0  0  0  0  0  0  0  0  0  0  0  0
    3.7100    4.0320    1.0030 H   0  0  0  0  0  0  0  0  0  0  0  0
    4.0500    2.7410    2.0470 H   0  0  0  0  0  0  0  0  0  0  0  0
   -4.0520   -0.6360   -0.5320 H   0  0  0  0  0  0  0  0  0  0  0  0
   -5.7080   -2.1540   -0.1930 H   0  0  0  0  0  0  0  0  0  0  0  0
   -3.5020   -4.6880    1.6380 H   0  0  0  0  0  0  0  0  0  0  0  0
   -4.3560   -6.8890    2.4400 H   0  0  0  0  0  0  0  0  0  0  0  0
   -6.7620   -7.4490    2.0540 H   0  0  0  0  0  0  0  0  0  0  0  0
   -7.4730   -3.8440    0.1930 H   0  0  0  0  0  0  0  0  0  0  0  0
  1  2  1  0  0  0  0
  1  5  1  0  0  0  0
  2  3  2  0  0  0  0
  2 14  1  0  0  0  0
  3  4  1  0  0  0  0
  4  5  2  0  0  0  0
  4  9  1  0  0  0  0
  5  6  1  0  0  0  0
  6  7  2  0  0  0  0
  6 23  1  0  0  0  0
  7  8  1  0  0  0  0
  7 10  1  0  0  0  0
  8  9  2  0  0  0  0
  8 24  1  0  0  0  0
  9 25  1  0  0  0  0
 10 11  2  0  0  0  0
 10 12  2  0  0  0  0
 10 13  1  0  0  0  0
 13 26  1  0  0  0  0
 13 27  1  0  0  0  0
 14 15  1  0  0  0  0
 14 28  1  0  0  0  0
 15 16  2  0  0  0  0
 16 17  1  0  0  0  0
 16 29  1  0  0  0  0
 17 18  2  0  0  0  0
 17 22  1  0  0  0  0
 18 19  1  0  0  0  0
 18 30  1  0  0  0  0
 19 20  2  0  0  0  0
 19 31  1  0  0  0  0
 20 21  1  0  0  0  0
 20 32  1  0  0  0  0
 21 22  2  0  0  0  0
 22 33  1  0  0  0  0
M  END
$$$$
