X1V26
 OpenBabel08152610123D

 35 37  0  0  0  0  0  0  0  0999 V2000
   -1.7540    0.8690   -0.1160 S   0  0  0  0  0  0  0  0  0  0  0  0
   -2.0720   -0.8240   -0.0230 C   0  0  0  0  0  0  0  0  0  0  0  0
   -0.9980   -1.5780    0.0570 N   0  0  0  0  0  0  0  0  0  0  0  0
    0.1460   -0.8100    0.0320 C   0  0  0  0  0  0  0  0  0  0  0  0
   -0.0590    0.5690   -0.0340 C   0  0  0  0  0  0  0  0  0  0  0  0
    1.0110    1.4820   -0.0420 C   0  0  0  0  0  0  0  0  0  0  0  0
    2.3110    0.9570   -0.0100 C   0  0  0  0  0  0  0  0  0  0  0  0
    2.5450   -0.4160    0.0370 C   0  0  0  0  0  0  0  0  0  0  0  0
    1.4660   -1.3050    0.0650 C   0  0  0  0  0  0  0  0  0  0  0  0
    3.6890    2.0670   -0.0660 S   0  0  0  0  0  0  0  0  0  0  0  0
    4.9080    1.3320    0.1670 O   0  0  0  0  0  0  0  0  0  0  0  0
    3.5180    2.9550   -1.1940 O   0  0  0  0  0  0  0  0  0  0  0  0
    3.4690    3.0040    1.3090 N   0  0  0  0  0  0  0  0  0  0  0  0
   -3.3560   -1.2780   -0.0210 N   0  0  0  0  0  0  0  0  0  0  0  0
   -3.6710   -2.4920    0.5090 N   0  0  0  0  0  0  0  0  0  0  0  0
   -4.9210   -2.8300    0.5040 C   0  0  0  0  0  0  0  0  0  0  0  0
   -5.3530   -4.0930    1.1350 C   0  0  0  0  0  0  0  0  0  0  0  0
   -4.4000   -4.9060    1.7660 C   0  0  0  0  0  0  0  0  0  0  0  0
   -4.8020   -6.0760    2.4030 C   0  0  0  0  0  0  0  0  0  0  0  0
   -6.1460   -6.4490    2.4130 C   0  0  0  0  0  0  0  0  0  0  0  0
   -7.0990   -5.6450    1.7800 C   0  0  0  0  0  0  0  0  0  0  0  0
   -6.7010   -4.4670    1.1450 C   0  0  0  0  0  0  0  0  0  0  0  0
   -7.6360   -3.6750    0.5390 O   0  0  0  0  0  0  0  0  0  0  0  0
   -3.6380   -7.0640    3.1930 Cl  0  0  0  0  0  0  0  0  0  0  0  0
    0.8330    2.5520   -0.0840 H   0  0  0  0  0  0  0  0  0  0  0  0
    3.5580   -0.8130    0.0470 H   0  0  0  0  0  0  0  0  0  0  0  0
    1.6300   -2.3780    0.1010 H   0  0  0  0  0  0  0  0  0  0  0  0
    3.4560    3.9900    1.0460 H   0  0  0  0  0  0  0  0  0  0  0  0
    4.1920    2.7790    1.9950 H   0  0  0  0  0  0  0  0  0  0  0  0
   -4.0870   -0.5770   -0.1090 H   0  0  0  0  0  0  0  0  0  0  0  0
   -5.6940   -2.1880    0.0440 H   0  0  0  0  0  0  0  0  0  0  0  0
   -3.3500   -4.6190    1.7680 H   0  0  0  0  0  0  0  0  0  0  0  0
   -6.4550   -7.3620    2.9150 H   0  0  0  0  0  0  0  0  0  0  0  0
   -8.1400   -5.9540    1.7990 H   0  0  0  0  0  0  0  0  0  0  0  0
   -8.5140   -4.0820    0.6410 H   0  0  0  0  0  0  0  0  0  0  0  0
  1  2  1  0  0  0  0
  1  5  1  0  0  0  0
  2  3  2  0  0  0  0
  2 14  1  0  0  0  0
  3  4  1  0  0  0  0
  4  5  2  0  0  0  0
  4  9  1  0  0  0  0
  5  6  1  0  0  0  0
  6  7  2  0  0  0  0
  6 25  1  0  0  0  0
  7  8  1  0  0  0  0
  7 10  1  0  0  0  0
  8  9  2  0  0  0  0
  8 26  1  0  0  0  0
  9 27  1  0  0  0  0
 10 11  2  0  0  0  0
 10 12  2  0  0  0  0
 10 13  1  0  0  0  0
 13 28  1  0  0  0  0
 13 29  1  0  0  0  0
 14 15  1  0  0  0  0
 14 30  1  0  0  0  0
 15 16  2  0  0  0  0
 16 17  1  0  0  0  0
 16 31  1  0  0  0  0
 17 18  2  0  0  0  0
 17 22  1  0  0  0  0
 18 19  1  0  0  0  0
 18 32  1  0  0  0  0
 19 20  2  0  0  0  0
 19 24  1  0  0  0  0
 20 21  1  0  0  0  0
 20 33  1  0  0  0  0
 21 22  2  0  0  0  0
 21 34  1  0  0  0  0
 22 23  1  0  0  0  0
 23 35  1  0  0  0  0
M  END
$$$$
