BI-1
     RDKit          3D

 24 26  0  0  0  0  0  0  0  0999 V2000
    3.5680    2.3150    3.5910 F   0  0  0  0  0  0  0  0  0  0  0  0
    3.1990    3.8400    2.0830 F   0  0  0  0  0  0  0  0  0  0  0  0
    3.6480    2.5730    2.2610 C   0  0  1  0  0  0  0  0  0  0  0  0
    5.0150    2.5090    1.8970 O   0  0  0  0  0  0  0  0  0  0  0  0
    4.8000    2.9100   -1.8080 C   0  0  0  0  0  0  0  0  0  0  0  0
    4.4120    2.9030   -0.4590 C   0  0  0  0  0  0  0  0  0  0  0  0
    5.2980    2.5280    0.5580 C   0  0  0  0  0  0  0  0  0  0  0  0
    6.6160    2.1710    0.2460 C   0  0  0  0  0  0  0  0  0  0  0  0
    8.2790    2.0050   -1.6250 N   0  0  0  0  0  0  0  0  0  0  0  0
    7.0300    2.2020   -1.0910 C   0  0  0  0  0  0  0  0  0  0  0  0
    6.1200    2.5580   -2.0810 C   0  0  0  0  0  0  0  0  0  0  0  0
    6.8520    2.5170   -3.2450 N   0  0  0  0  0  0  0  0  0  0  0  0
    8.1470    2.2610   -2.9010 C   0  0  0  0  0  0  0  0  0  0  0  0
    9.4350    2.6290   -3.9870 S   0  0  0  0  0  0  0  0  0  0  0  0
   11.2060    5.4830    0.4010 C   0  0  0  0  0  0  0  0  0  0  0  0
   11.0500    6.3130    1.5160 C   0  0  0  0  0  0  0  0  0  0  0  0
    9.7770    6.7130    1.9260 C   0  0  0  0  0  0  0  0  0  0  0  0
    8.6580    6.2950    1.2110 C   0  0  0  0  0  0  0  0  0  0  0  0
    8.8160    5.4680    0.1000 C   0  0  0  0  0  0  0  0  0  0  0  0
   10.0910    5.0400   -0.3060 C   0  0  0  0  0  0  0  0  0  0  0  0
   10.1420    4.1460   -1.3890 N   0  0  0  0  0  0  0  0  0  0  0  0
   12.3820    3.5830   -1.5160 O   0  0  0  0  0  0  0  0  0  0  0  0
   10.9010    2.3700   -2.9370 C   0  0  0  0  0  0  0  0  0  0  0  0
   11.2170    3.4480   -1.8940 C   0  0  0  0  0  0  0  0  0  0  0  0
  3  1  1  1
  2  3  1  0
  3  4  1  0
  4  7  1  0
  5 11  1  0
  5  6  2  0
  6  7  1  0
  7  8  2  0
  8 10  1  0
  9 13  2  0
  9 10  1  0
 10 11  2  0
 11 12  1  0
 12 13  1  0
 13 14  1  0
 23 14  1  1
 15 20  2  0
 15 16  1  0
 16 17  2  0
 17 18  1  0
 18 19  2  0
 19 20  1  0
 20 21  1  0
 21 24  1  0
 22 24  2  0
 23 24  1  0
M  END
$$$$
BI-6
     RDKit          3D

 25 27  0  0  0  0  0  0  0  0999 V2000
    0.9510   -0.0420    0.0370 C   0  0  0  0  0  0  0  0  0  0  0  0
    0.1310   -0.5620   -1.1260 C   0  0  0  0  0  0  0  0  0  0  0  0
    1.0130   -0.7000    1.0770 O   0  0  0  0  0  0  0  0  0  0  0  0
    1.5840    1.1720   -0.1670 N   0  0  0  0  0  0  0  0  0  0  0  0
    2.4000    1.8180    0.7960 C   0  0  0  0  0  0  0  0  0  0  0  0
    2.9530    1.1390    1.8850 C   0  0  0  0  0  0  0  0  0  0  0  0
    3.7840    3.1990    2.8090 C   0  0  0  0  0  0  0  0  0  0  0  0
    2.6250    3.1910    0.6760 C   0  0  0  0  0  0  0  0  0  0  0  0
    3.6190    1.8170    2.9110 C   0  0  0  0  0  0  0  0  0  0  0  0
    3.3080    3.8800    1.6860 C   0  0  0  0  0  0  0  0  0  0  0  0
    4.0850    1.0660    4.1220 C   0  0  0  0  0  0  0  0  0  0  0  0
    0.8720   -2.0750   -1.7930 S   0  0  0  0  0  0  0  0  0  0  0  0
    0.5400   -3.2700   -0.5840 C   0  0  0  0  0  0  0  0  0  0  0  0
    1.2230   -3.3050    0.6000 N   0  0  0  0  0  0  0  0  0  0  0  0
    0.9580   -4.5080    1.2100 C   0  0  0  0  0  0  0  0  0  0  0  0
    0.0410   -5.1160    0.3590 C   0  0  0  0  0  0  0  0  0  0  0  0
   -0.2150   -4.3300   -0.7420 N   0  0  0  0  0  0  0  0  0  0  0  0
   -0.4530   -6.3860    0.6910 C   0  0  0  0  0  0  0  0  0  0  0  0
    0.0310   -7.0290    1.8380 C   0  0  0  0  0  0  0  0  0  0  0  0
    0.9460   -6.3880    2.6810 C   0  0  0  0  0  0  0  0  0  0  0  0
    1.4270   -5.1030    2.3840 C   0  0  0  0  0  0  0  0  0  0  0  0
   -0.4940   -8.2740    2.0570 O   0  0  0  0  0  0  0  0  0  0  0  0
    0.3850   -9.2090    2.6600 C   0  0  1  0  0  0  0  0  0  0  0  0
    0.2560   -9.1230    4.0070 F   0  0  0  0  0  0  0  0  0  0  0  0
   -0.0410  -10.4490    2.3070 F   0  0  0  0  0  0  0  0  0  0  0  0
  1  2  1  0
  1  3  2  0
  1  4  1  0
  2 12  1  6
  4  5  1  0
  5  6  1  0
  5  8  2  0
  6  9  2  0
  7  9  1  0
  7 10  2  0
  8 10  1  0
 11  9  1  1
 12 13  1  0
 13 14  1  0
 13 17  2  0
 14 15  1  0
 15 16  2  0
 15 21  1  0
 16 17  1  0
 16 18  1  0
 18 19  2  0
 19 20  1  0
 19 22  1  0
 20 21  2  0
 22 23  1  0
 23 24  1  1
 23 25  1  0
M  END
$$$$
OX-11
     RDKit          3D

 32 35  0  0  0  0  0  0  0  0999 V2000
   -0.4760    0.8800    3.4550 N   0  0  0  0  0  0  0  0  0  0  0  0
   -1.0920    0.6780    4.7430 C   0  0  0  0  0  0  0  0  0  0  0  0
    0.6960    1.5430    3.2120 C   0  0  0  0  0  0  0  0  0  0  0  0
    0.9960    1.5460    1.9270 N   0  0  0  0  0  0  0  0  0  0  0  0
   -0.0310    0.8750    1.3360 C   0  0  0  0  0  0  0  0  0  0  0  0
   -0.1920    0.6270   -0.0070 N   0  0  0  0  0  0  0  0  0  0  0  0
    0.7930    1.0560   -0.9820 C   0  0  0  0  0  0  0  0  0  0  0  0
   -1.3310   -0.0560   -0.4500 C   0  0  0  0  0  0  0  0  0  0  0  0
   -1.5270   -0.2600   -1.6520 O   0  0  0  0  0  0  0  0  0  0  0  0
   -2.2370   -0.5050    0.5290 N   0  0  0  0  0  0  0  0  0  0  0  0
   -2.1140   -0.2770    1.8970 C   0  0  0  0  0  0  0  0  0  0  0  0
   -2.9120   -0.6780    2.7420 O   0  0  0  0  0  0  0  0  0  0  0  0
   -0.9490    0.4550    2.2470 C   0  0  0  0  0  0  0  0  0  0  0  0
   -3.3810   -1.3120    0.1130 C   0  0  0  0  0  0  0  0  0  0  0  0
   -4.5980   -0.4820   -0.1050 C   0  0  0  0  0  0  0  0  0  0  0  0
   -4.8270   -0.0680   -1.3910 O   0  0  0  0  0  0  0  0  0  0  0  0
   -6.0120    0.5980   -1.2710 C   0  0  0  0  0  0  0  0  0  0  0  0
   -6.4810    0.5780   -0.0410 N   0  0  0  0  0  0  0  0  0  0  0  0
   -5.5690   -0.1370    0.7140 N   0  0  0  0  0  0  0  0  0  0  0  0
   -6.8870    1.2470   -2.6230 S   0  0  0  0  0  0  0  0  0  0  0  0
   -7.0790   -0.2730   -3.5760 C   0  0  0  0  0  0  0  0  0  0  0  0
   -7.9350   -1.3570   -2.9320 C   0  0  0  0  0  0  0  0  0  0  0  0
   -8.4420   -1.1610   -1.6580 N   0  0  0  0  0  0  0  0  0  0  0  0
   -8.1380   -2.3940   -3.5880 O   0  0  0  0  0  0  0  0  0  0  0  0
   -9.2880   -2.1190   -1.0310 C   0  0  0  0  0  0  0  0  0  0  0  0
   -8.8400   -3.4280   -0.7490 C   0  0  0  0  0  0  0  0  0  0  0  0
   -9.7620   -4.3850   -0.2870 C   0  0  0  0  0  0  0  0  0  0  0  0
  -11.0920   -4.0450   -0.0630 C   0  0  0  0  0  0  0  0  0  0  0  0
  -11.5070   -2.7290   -0.2420 C   0  0  0  0  0  0  0  0  0  0  0  0
  -10.6130   -1.7480   -0.7070 C   0  0  0  0  0  0  0  0  0  0  0  0
  -11.1340   -0.3540   -0.9270 C   0  0  0  0  0  0  0  0  0  0  0  0
   -7.4050   -3.8660   -0.8740 C   0  0  0  0  0  0  0  0  0  0  0  0
  2  1  1  1
  1  3  1  0
  1 13  1  0
  3  4  2  0
  4  5  1  0
  5  6  1  0
  5 13  2  0
  7  6  1  1
  6  8  1  0
  8  9  2  0
  8 10  1  0
 10 11  1  0
 14 10  1  1
 11 12  2  0
 11 13  1  0
 14 15  1  0
 15 16  1  0
 15 19  2  0
 16 17  1  0
 17 18  2  0
 17 20  1  0
 18 19  1  0
 21 20  1  1
 21 22  1  0
 22 23  1  0
 22 24  2  0
 23 25  1  0
 25 26  1  0
 25 30  2  0
 26 27  2  0
 32 26  1  1
 27 28  1  0
 28 29  2  0
 29 30  1  0
 31 30  1  1
M  END
$$$$
T2Z14
     RDKit          3D

 43 48  0  0  0  0  0  0  0  0999 V2000
    2.6300    0.5180    2.4440 C   0  0  0  0  0  0  0  0  0  0  0  0
    2.4810   -3.9260    2.4820 C   0  0  0  0  0  0  0  0  0  0  0  0
    4.5200   -4.4700    1.3010 C   0  0  0  0  0  0  0  0  0  0  0  0
    2.5040   -2.6370    1.9390 C   0  0  0  0  0  0  0  0  0  0  0  0
    3.4980   -4.8280    2.1760 C   0  0  0  0  0  0  0  0  0  0  0  0
    4.5390   -3.1880    0.7460 C   0  0  0  0  0  0  0  0  0  0  0  0
    3.5540   -2.2500    1.0970 C   0  0  0  0  0  0  0  0  0  0  0  0
    3.1960    0.2810    1.0940 C   0  0  0  0  0  0  0  0  0  0  0  0
    3.4970    1.1940    0.0980 C   0  0  0  0  0  0  0  0  0  0  0  0
    4.1530    0.5640   -0.9170 N   0  0  0  0  0  0  0  0  0  0  0  0
    4.3020   -0.7060   -0.5880 N   0  0  0  0  0  0  0  0  0  0  0  0
    3.6480   -0.9290    0.5830 N   0  0  0  0  0  0  0  0  0  0  0  0
    1.6650    6.8830    0.8200 C   0  0  0  0  0  0  0  0  0  0  0  0
    1.1420    7.8890    1.6350 C   0  0  0  0  0  0  0  0  0  0  0  0
    0.8310    7.6230    2.9650 C   0  0  0  0  0  0  0  0  0  0  0  0
    1.0250    6.3440    3.4830 C   0  0  0  0  0  0  0  0  0  0  0  0
    1.5360    5.3270    2.6730 C   0  0  0  0  0  0  0  0  0  0  0  0
    1.8700    5.5940    1.3380 C   0  0  0  0  0  0  0  0  0  0  0  0
    2.9830    4.6910   -0.7170 C   0  0  0  0  0  0  0  0  0  0  0  0
    3.5610    3.4840   -1.0450 C   0  0  0  0  0  0  0  0  0  0  0  0
    3.2260    2.6360    0.0370 C   0  0  0  0  0  0  0  0  0  0  0  0
    2.5760    3.2950    1.0060 N   0  0  0  0  0  0  0  0  0  0  0  0
    2.4500    4.5680    0.5410 N   0  0  0  0  0  0  0  0  0  0  0  0
    8.8130    5.6020   -9.5430 N   0  0  0  0  0  0  0  0  0  0  0  0
    8.5190    4.7480  -10.6680 C   0  0  0  0  0  0  0  0  0  0  0  0
   10.0200    6.1580   -9.2040 C   0  0  0  0  0  0  0  0  0  0  0  0
   10.0650    6.4750   -7.9170 N   0  0  0  0  0  0  0  0  0  0  0  0
    8.8690    6.0440   -7.4300 C   0  0  0  0  0  0  0  0  0  0  0  0
    8.5220    5.7940   -6.1210 N   0  0  0  0  0  0  0  0  0  0  0  0
    8.5500    6.8510   -5.1390 C   0  0  0  0  0  0  0  0  0  0  0  0
    7.5580    4.8010   -5.9090 C   0  0  0  0  0  0  0  0  0  0  0  0
    7.5100    4.1410   -4.8660 O   0  0  0  0  0  0  0  0  0  0  0  0
    6.6140    4.6250   -6.9330 N   0  0  0  0  0  0  0  0  0  0  0  0
    6.7260    5.1700   -8.2000 C   0  0  0  0  0  0  0  0  0  0  0  0
    5.8490    5.1760   -9.0530 O   0  0  0  0  0  0  0  0  0  0  0  0
    8.0370    5.6480   -8.4280 C   0  0  0  0  0  0  0  0  0  0  0  0
    5.4990    3.7420   -6.6750 C   0  0  0  0  0  0  0  0  0  0  0  0
    4.6310    4.3130   -5.5660 C   0  0  0  0  0  0  0  0  0  0  0  0
    4.8160    3.6120   -4.3790 N   0  0  0  0  0  0  0  0  0  0  0  0
    3.9320    5.3010   -5.7190 O   0  0  0  0  0  0  0  0  0  0  0  0
    4.3010    3.2070   -2.2460 C   0  0  0  0  0  0  0  0  0  0  0  0
    4.0830    3.9460   -3.2840 N   0  0  0  0  0  0  0  0  0  0  0  0
    3.4910   -6.5500    2.9560 Br  0  0  0  0  0  0  0  0  0  0  0  0
  1  8  1  1
  2  4  2  0
  2  5  1  0
  3  5  2  0
  3  6  1  0
  4  7  1  0
  5 43  1  0
  6  7  2  0
  7 12  1  0
  8 12  1  0
  8  9  2  0
  9 21  1  0
  9 10  1  0
 10 11  2  0
 11 12  1  0
 13 18  2  0
 13 14  1  0
 14 15  2  0
 15 16  1  0
 16 17  2  0
 17 18  1  0
 18 23  1  0
 19 23  1  0
 19 20  2  0
 20 41  1  0
 20 21  1  0
 21 22  2  0
 22 23  1  0
 25 24  1  1
 24 26  1  0
 24 36  1  0
 26 27  2  0
 27 28  1  0
 28 29  1  0
 28 36  2  0
 30 29  1  1
 29 31  1  0
 31 32  2  0
 31 33  1  0
 33 34  1  0
 37 33  1  1
 34 35  2  0
 34 36  1  0
 37 38  1  0
 38 39  1  0
 38 40  2  0
 39 42  1  0
 41 42  2  0
M  END
$$$$
T2Z5
     RDKit          3D

 34 38  0  0  0  0  0  0  0  0999 V2000
    2.6940   -0.9450    6.2180 S   0  0  0  0  0  0  0  0  0  0  0  0
    2.5580   -0.4390    4.5680 C   0  0  0  0  0  0  0  0  0  0  0  0
    3.4820    0.4900    4.2330 N   0  0  0  0  0  0  0  0  0  0  0  0
    4.3140    0.8610    5.2720 C   0  0  0  0  0  0  0  0  0  0  0  0
    4.0130    0.2150    6.4120 C   0  0  0  0  0  0  0  0  0  0  0  0
    1.6510   -0.6070    3.6500 N   0  0  0  0  0  0  0  0  0  0  0  0
    2.0040    0.3100    2.6560 C   0  0  0  0  0  0  0  0  0  0  0  0
    3.2470    0.9050    2.9310 C   0  0  0  0  0  0  0  0  0  0  0  0
    0.9690    0.5800    1.6440 C   0  0  0  0  0  0  0  0  0  0  0  0
    0.8240    1.7970    0.9730 C   0  0  0  0  0  0  0  0  0  0  0  0
   -0.3420    2.0850    0.2460 C   0  0  0  0  0  0  0  0  0  0  0  0
   -1.3870    1.1660    0.2000 C   0  0  0  0  0  0  0  0  0  0  0  0
   -1.2580   -0.0670    0.8240 C   0  0  0  0  0  0  0  0  0  0  0  0
   -0.0820   -0.3590    1.5230 C   0  0  0  0  0  0  0  0  0  0  0  0
    8.9380   -0.2900    4.1520 N   0  0  0  0  0  0  0  0  0  0  0  0
    8.8370   -1.6610    3.7170 C   0  0  0  0  0  0  0  0  0  0  0  0
    9.4520    0.1480    5.3430 C   0  0  0  0  0  0  0  0  0  0  0  0
    9.4210    1.4640    5.4300 N   0  0  0  0  0  0  0  0  0  0  0  0
    8.8710    1.8700    4.2530 C   0  0  0  0  0  0  0  0  0  0  0  0
    8.6770    3.1620    3.8340 N   0  0  0  0  0  0  0  0  0  0  0  0
    9.1300    4.2940    4.6220 C   0  0  0  0  0  0  0  0  0  0  0  0
    8.1480    3.3900    2.5580 C   0  0  0  0  0  0  0  0  0  0  0  0
    8.1740    4.5130    2.0560 O   0  0  0  0  0  0  0  0  0  0  0  0
    7.5650    2.2880    1.9010 N   0  0  0  0  0  0  0  0  0  0  0  0
    7.9080    0.9640    2.1960 C   0  0  0  0  0  0  0  0  0  0  0  0
    7.6970    0.0150    1.4480 O   0  0  0  0  0  0  0  0  0  0  0  0
    8.5330    0.8160    3.4620 C   0  0  0  0  0  0  0  0  0  0  0  0
    6.9560    2.4990    0.5870 C   0  0  0  0  0  0  0  0  0  0  0  0
    5.9550    3.6410    0.4510 C   0  0  0  0  0  0  0  0  0  0  0  0
    4.6720    3.5580    0.9310 N   0  0  0  0  0  0  0  0  0  0  0  0
    6.2740    4.6940   -0.1140 O   0  0  0  0  0  0  0  0  0  0  0  0
    4.1360    1.8550    2.3070 C   0  0  0  0  0  0  0  0  0  0  0  0
    3.9110    2.4410    1.1760 N   0  0  0  0  0  0  0  0  0  0  0  0
   -3.0110    1.6190   -0.6540 Br  0  0  0  0  0  0  0  0  0  0  0  0
  1  2  1  0
  1  5  1  0
  2  3  1  0
  2  6  2  0
  3  4  1  0
  3  8  1  0
  4  5  2  0
  6  7  1  0
  7  8  2  0
  7  9  1  0
  8 32  1  0
  9 10  1  0
  9 14  2  0
 10 11  2  0
 11 12  1  0
 12 13  2  0
 12 34  1  0
 13 14  1  0
 16 15  1  1
 15 17  1  0
 15 27  1  0
 17 18  2  0
 18 19  1  0
 19 20  1  0
 19 27  2  0
 21 20  1  1
 20 22  1  0
 22 23  2  0
 22 24  1  0
 24 25  1  0
 28 24  1  1
 25 26  2  0
 25 27  1  0
 28 29  1  0
 29 30  1  0
 29 31  2  0
 30 33  1  0
 32 33  2  0
M  END
$$$$
T2Z6
     RDKit          3D

 34 38  0  0  0  0  0  0  0  0999 V2000
    4.4850   -0.2360    6.8520 S   0  0  0  0  0  0  0  0  0  0  0  0
    3.5070    0.4710    5.6080 C   0  0  0  0  0  0  0  0  0  0  0  0
    4.2590    1.0130    4.6210 N   0  0  0  0  0  0  0  0  0  0  0  0
    5.6230    0.9370    4.8220 C   0  0  0  0  0  0  0  0  0  0  0  0
    5.9200    0.3240    5.9810 C   0  0  0  0  0  0  0  0  0  0  0  0
    2.2500    0.7600    5.5040 N   0  0  0  0  0  0  0  0  0  0  0  0
    2.1780    1.5830    4.3700 C   0  0  0  0  0  0  0  0  0  0  0  0
    3.4170    1.6150    3.7060 C   0  0  0  0  0  0  0  0  0  0  0  0
    0.9120    2.2990    4.1630 C   0  0  0  0  0  0  0  0  0  0  0  0
    0.7450    3.4060    3.3310 C   0  0  0  0  0  0  0  0  0  0  0  0
   -0.4190    4.1910    3.4000 C   0  0  0  0  0  0  0  0  0  0  0  0
   -1.4340    3.8710    4.2990 C   0  0  0  0  0  0  0  0  0  0  0  0
   -1.3230    2.7410    5.0950 C   0  0  0  0  0  0  0  0  0  0  0  0
   -0.1660    1.9600    5.0140 C   0  0  0  0  0  0  0  0  0  0  0  0
   10.5140    7.7550    0.9120 N   0  0  0  0  0  0  0  0  0  0  0  0
   11.1810    7.9540   -0.3480 C   0  0  0  0  0  0  0  0  0  0  0  0
   10.8640    8.3480    2.0980 C   0  0  0  0  0  0  0  0  0  0  0  0
   10.0230    8.0400    3.0630 N   0  0  0  0  0  0  0  0  0  0  0  0
    9.1000    7.2370    2.4620 C   0  0  0  0  0  0  0  0  0  0  0  0
    7.9530    6.7490    3.0350 N   0  0  0  0  0  0  0  0  0  0  0  0
    7.6020    7.0240    4.4110 C   0  0  0  0  0  0  0  0  0  0  0  0
    7.0320    6.0960    2.2260 C   0  0  0  0  0  0  0  0  0  0  0  0
    5.8680    5.9220    2.5940 O   0  0  0  0  0  0  0  0  0  0  0  0
    7.4740    5.6510    0.9650 N   0  0  0  0  0  0  0  0  0  0  0  0
    8.5850    6.1900    0.3040 C   0  0  0  0  0  0  0  0  0  0  0  0
    8.8140    6.0280   -0.8900 O   0  0  0  0  0  0  0  0  0  0  0  0
    9.3950    7.0080    1.1470 C   0  0  0  0  0  0  0  0  0  0  0  0
    6.5070    4.8960    0.1720 C   0  0  0  0  0  0  0  0  0  0  0  0
    5.8560    3.7490    0.9750 C   0  0  0  0  0  0  0  0  0  0  0  0
    4.4520    3.8420    1.0060 N   0  0  0  0  0  0  0  0  0  0  0  0
    6.5310    2.9030    1.5620 O   0  0  0  0  0  0  0  0  0  0  0  0
    3.9850    2.1540    2.5000 C   0  0  0  0  0  0  0  0  0  0  0  0
    3.6750    3.3120    2.0230 N   0  0  0  0  0  0  0  0  0  0  0  0
   -2.8060    4.8960    4.4560 Cl  0  0  0  0  0  0  0  0  0  0  0  0
  1  2  1  0
  1  5  1  0
  2  3  1  0
  2  6  2  0
  3  4  1  0
  3  8  1  0
  4  5  2  0
  6  7  1  0
  7  8  2  0
  7  9  1  0
  8 32  1  0
  9 10  1  0
  9 14  2  0
 10 11  2  0
 11 12  1  0
 12 13  2  0
 12 34  1  0
 13 14  1  0
 16 15  1  1
 15 17  1  0
 15 27  1  0
 17 18  2  0
 18 19  1  0
 19 20  1  0
 19 27  2  0
 21 20  1  1
 20 22  1  0
 22 23  2  0
 22 24  1  0
 24 25  1  0
 28 24  1  1
 25 26  2  0
 25 27  1  0
 28 29  1  0
 29 30  1  0
 29 31  2  0
 30 33  1  0
 32 33  2  0
M  END
$$$$
T2Z9
     RDKit          3D

 43 48  0  0  0  0  0  0  0  0999 V2000
    2.7020    0.3650    2.5040 C   0  0  0  0  0  0  0  0  0  0  0  0
    3.6610   -6.5160    3.0190 Cl  0  0  0  0  0  0  0  0  0  0  0  0
    2.6100   -4.0700    2.5800 C   0  0  0  0  0  0  0  0  0  0  0  0
    4.6540   -4.5980    1.4020 C   0  0  0  0  0  0  0  0  0  0  0  0
    2.6120   -2.7880    2.0200 C   0  0  0  0  0  0  0  0  0  0  0  0
    3.6400   -4.9610    2.2860 C   0  0  0  0  0  0  0  0  0  0  0  0
    4.6540   -3.3230    0.8300 C   0  0  0  0  0  0  0  0  0  0  0  0
    3.6560   -2.3960    1.1730 C   0  0  0  0  0  0  0  0  0  0  0  0
    3.2690    0.1290    1.1550 C   0  0  0  0  0  0  0  0  0  0  0  0
    3.5640    1.0420    0.1590 C   0  0  0  0  0  0  0  0  0  0  0  0
    4.2300    0.4160   -0.8540 N   0  0  0  0  0  0  0  0  0  0  0  0
    4.3890   -0.8530   -0.5210 N   0  0  0  0  0  0  0  0  0  0  0  0
    3.7340   -1.0780    0.6490 N   0  0  0  0  0  0  0  0  0  0  0  0
    1.7300    6.7280    0.8760 C   0  0  0  0  0  0  0  0  0  0  0  0
    1.2150    7.7390    1.6960 C   0  0  0  0  0  0  0  0  0  0  0  0
    0.9060    7.4740    3.0220 C   0  0  0  0  0  0  0  0  0  0  0  0
    1.0930    6.1940    3.5460 C   0  0  0  0  0  0  0  0  0  0  0  0
    1.6050    5.1750    2.7340 C   0  0  0  0  0  0  0  0  0  0  0  0
    1.9310    5.4390    1.4040 C   0  0  0  0  0  0  0  0  0  0  0  0
    3.0450    4.5410   -0.6520 C   0  0  0  0  0  0  0  0  0  0  0  0
    3.6120    3.3280   -0.9850 C   0  0  0  0  0  0  0  0  0  0  0  0
    3.2840    2.4830    0.0970 C   0  0  0  0  0  0  0  0  0  0  0  0
    2.6360    3.1430    1.0670 N   0  0  0  0  0  0  0  0  0  0  0  0
    2.5120    4.4130    0.6030 N   0  0  0  0  0  0  0  0  0  0  0  0
    8.8350    5.4840   -9.4880 N   0  0  0  0  0  0  0  0  0  0  0  0
    8.5460    4.6560  -10.6330 C   0  0  0  0  0  0  0  0  0  0  0  0
   10.0300    6.0600   -9.1420 C   0  0  0  0  0  0  0  0  0  0  0  0
   10.0670    6.3830   -7.8570 N   0  0  0  0  0  0  0  0  0  0  0  0
    8.8800    5.9170   -7.3740 C   0  0  0  0  0  0  0  0  0  0  0  0
    8.5260    5.6840   -6.0630 N   0  0  0  0  0  0  0  0  0  0  0  0
    8.6080    6.7220   -5.0690 C   0  0  0  0  0  0  0  0  0  0  0  0
    7.5670    4.6880   -5.8420 C   0  0  0  0  0  0  0  0  0  0  0  0
    7.5080    4.0540   -4.7830 O   0  0  0  0  0  0  0  0  0  0  0  0
    6.6410    4.4790   -6.8730 N   0  0  0  0  0  0  0  0  0  0  0  0
    6.7600    4.9940   -8.1490 C   0  0  0  0  0  0  0  0  0  0  0  0
    5.8970    4.9600   -9.0170 O   0  0  0  0  0  0  0  0  0  0  0  0
    8.0650    5.5010   -8.3680 C   0  0  0  0  0  0  0  0  0  0  0  0
    5.5350    3.5830   -6.6150 C   0  0  0  0  0  0  0  0  0  0  0  0
    4.6580    4.1520   -5.5130 C   0  0  0  0  0  0  0  0  0  0  0  0
    4.8500    3.4720   -4.3170 N   0  0  0  0  0  0  0  0  0  0  0  0
    3.9340    5.1240   -5.6810 O   0  0  0  0  0  0  0  0  0  0  0  0
    4.3480    3.0590   -2.1880 C   0  0  0  0  0  0  0  0  0  0  0  0
    4.1170    3.7990   -3.2230 N   0  0  0  0  0  0  0  0  0  0  0  0
  1  9  1  1
  2  6  1  0
  3  5  2  0
  3  6  1  0
  4  6  2  0
  4  7  1  0
  5  8  1  0
  7  8  2  0
  8 13  1  0
  9 13  1  0
  9 10  2  0
 10 22  1  0
 10 11  1  0
 11 12  2  0
 12 13  1  0
 14 19  2  0
 14 15  1  0
 15 16  2  0
 16 17  1  0
 17 18  2  0
 18 19  1  0
 19 24  1  0
 20 24  1  0
 20 21  2  0
 21 42  1  0
 21 22  1  0
 22 23  2  0
 23 24  1  0
 26 25  1  1
 25 27  1  0
 25 37  1  0
 27 28  2  0
 28 29  1  0
 29 30  1  0
 29 37  2  0
 31 30  1  1
 30 32  1  0
 32 33  2  0
 32 34  1  0
 34 35  1  0
 38 34  1  1
 35 36  2  0
 35 37  1  0
 38 39  1  0
 39 40  1  0
 39 41  2  0
 40 43  1  0
 42 43  2  0
M  END
$$$$
X1V11
     RDKit          3D

 24 26  0  0  0  0  0  0  0  0999 V2000
   -1.7440    0.8750   -0.2260 S   0  0  0  0  0  0  0  0  0  0  0  0
   -2.1110   -0.8020   -0.0290 C   0  0  0  0  0  0  0  0  0  0  0  0
   -1.0630   -1.5790    0.1340 N   0  0  0  0  0  0  0  0  0  0  0  0
    0.1030   -0.8320    0.0960 C   0  0  0  0  0  0  0  0  0  0  0  0
   -0.0710    0.5380   -0.1000 C   0  0  0  0  0  0  0  0  0  0  0  0
    1.0070    1.4320   -0.1680 C   0  0  0  0  0  0  0  0  0  0  0  0
    2.2940    0.9050   -0.0150 C   0  0  0  0  0  0  0  0  0  0  0  0
    2.5060   -0.4600    0.1730 C   0  0  0  0  0  0  0  0  0  0  0  0
    1.4140   -1.3340    0.2340 C   0  0  0  0  0  0  0  0  0  0  0  0
    3.6740    2.0090   -0.0780 S   0  0  1  0  0  0  0  0  0  0  0  0
    4.8660    1.2620   -0.4090 O   0  0  0  0  0  0  0  0  0  0  0  0
    3.2920    3.2140   -0.7760 O   0  0  0  0  0  0  0  0  0  0  0  0
    3.8240    2.4330    1.5380 N   0  0  0  0  0  0  0  0  0  0  0  0
   -3.3870   -1.2700   -0.0450 N   0  0  0  0  0  0  0  0  0  0  0  0
   -4.4660   -0.4610   -0.1920 N   0  0  0  0  0  0  0  0  0  0  0  0
   -5.6330   -1.0160   -0.1640 C   0  0  0  0  0  0  0  0  0  0  0  0
   -6.8420   -0.1810   -0.3070 C   0  0  0  0  0  0  0  0  0  0  0  0
   -6.7170    1.2020   -0.4850 C   0  0  0  0  0  0  0  0  0  0  0  0
   -7.8540    2.0030   -0.6040 C   0  0  0  0  0  0  0  0  0  0  0  0
   -9.1230    1.4260   -0.5410 C   0  0  0  0  0  0  0  0  0  0  0  0
   -9.2400    0.0420   -0.3710 C   0  0  0  0  0  0  0  0  0  0  0  0
   -8.1050   -0.7670   -0.2540 C   0  0  0  0  0  0  0  0  0  0  0  0
  -10.3100    2.1010   -0.6270 O   0  0  0  0  0  0  0  0  0  0  0  0
  -10.2310    3.5130   -0.7870 C   0  0  0  0  0  0  0  0  0  0  0  0
  1  2  1  0
  1  5  1  0
  2  3  2  0
  2 14  1  0
  3  4  1  0
  4  5  2  0
  4  9  1  0
  5  6  1  0
  6  7  2  0
  7  8  1  0
  7 10  1  0
  8  9  2  0
 10 11  2  0
 10 12  2  0
 10 13  1  1
 14 15  1  0
 15 16  2  0
 16 17  1  0
 17 18  1  0
 17 22  2  0
 18 19  2  0
 19 20  1  0
 20 21  2  0
 20 23  1  0
 21 22  1  0
 24 23  1  1
M  END
$$$$
X1V19
     RDKit          3D

 24 26  0  0  0  0  0  0  0  0999 V2000
   -1.7310    0.9370   -0.0380 S   0  0  0  0  0  0  0  0  0  0  0  0
   -2.1000   -0.7510   -0.0560 C   0  0  0  0  0  0  0  0  0  0  0  0
   -1.0480   -1.5410   -0.0240 N   0  0  0  0  0  0  0  0  0  0  0  0
    0.1220   -0.7940    0.0030 C   0  0  0  0  0  0  0  0  0  0  0  0
   -0.0530    0.5900   -0.0100 C   0  0  0  0  0  0  0  0  0  0  0  0
    1.0250    1.4900   -0.0090 C   0  0  0  0  0  0  0  0  0  0  0  0
    2.3160    0.9520    0.0030 C   0  0  0  0  0  0  0  0  0  0  0  0
    2.5300   -0.4270    0.0330 C   0  0  0  0  0  0  0  0  0  0  0  0
    1.4380   -1.3050    0.0330 C   0  0  0  0  0  0  0  0  0  0  0  0
    3.7030    2.0500   -0.0560 S   0  0  1  0  0  0  0  0  0  0  0  0
    4.9130    1.3040    0.1990 O   0  0  0  0  0  0  0  0  0  0  0  0
    3.5480    2.9180   -1.1990 O   0  0  0  0  0  0  0  0  0  0  0  0
    3.4840    3.0100    1.3060 N   0  0  0  0  0  0  0  0  0  0  0  0
   -3.3810   -1.2110   -0.1020 N   0  0  0  0  0  0  0  0  0  0  0  0
   -4.4680   -0.3910   -0.1040 N   0  0  0  0  0  0  0  0  0  0  0  0
   -5.6350   -0.9490   -0.1310 C   0  0  0  0  0  0  0  0  0  0  0  0
   -6.8600   -0.1150   -0.1210 C   0  0  0  0  0  0  0  0  0  0  0  0
   -6.7640    1.2820   -0.0960 C   0  0  0  0  0  0  0  0  0  0  0  0
   -7.9210    2.0680   -0.0720 C   0  0  0  0  0  0  0  0  0  0  0  0
   -9.1810    1.4620   -0.0730 C   0  0  0  0  0  0  0  0  0  0  0  0
   -9.2740    0.0630   -0.1000 C   0  0  0  0  0  0  0  0  0  0  0  0
   -8.1160   -0.7270   -0.1260 C   0  0  0  0  0  0  0  0  0  0  0  0
  -10.3700    2.2680   -0.0430 C   0  0  0  0  0  0  0  0  0  0  0  0
  -11.3300    2.9150   -0.0180 N   0  0  0  0  0  0  0  0  0  0  0  0
  1  2  1  0
  1  5  1  0
  2  3  2  0
  2 14  1  0
  3  4  1  0
  4  5  2  0
  4  9  1  0
  5  6  1  0
  6  7  2  0
  7  8  1  0
  7 10  1  0
  8  9  2  0
 10 11  2  0
 10 12  2  0
 10 13  1  1
 14 15  1  0
 15 16  2  0
 16 17  1  0
 17 18  1  0
 17 22  2  0
 18 19  2  0
 19 20  1  0
 20 21  2  0
 20 23  1  0
 21 22  1  0
 23 24  3  0
M  END
$$$$
X1V20
     RDKit          3D

 22 24  0  0  0  0  0  0  0  0999 V2000
   -1.7390    0.8840   -0.0850 S   0  0  0  0  0  0  0  0  0  0  0  0
   -2.0710   -0.8090   -0.0700 C   0  0  0  0  0  0  0  0  0  0  0  0
   -1.0040   -1.5740    0.0020 N   0  0  0  0  0  0  0  0  0  0  0  0
    0.1480   -0.8150    0.0180 C   0  0  0  0  0  0  0  0  0  0  0  0
   -0.0500    0.5650   -0.0030 C   0  0  0  0  0  0  0  0  0  0  0  0
    1.0210    1.4730    0.0160 C   0  0  0  0  0  0  0  0  0  0  0  0
    2.3200    0.9490    0.0290 C   0  0  0  0  0  0  0  0  0  0  0  0
    2.5510   -0.4290    0.0580 C   0  0  0  0  0  0  0  0  0  0  0  0
    1.4670   -1.3160    0.0490 C   0  0  0  0  0  0  0  0  0  0  0  0
    3.6700    2.0890   -0.0750 S   0  0  1  0  0  0  0  0  0  0  0  0
    4.9090    1.3690    0.1680 O   0  0  0  0  0  0  0  0  0  0  0  0
    3.4770    2.9190   -1.2300 O   0  0  0  0  0  0  0  0  0  0  0  0
    3.4720    3.0700    1.2680 N   0  0  0  0  0  0  0  0  0  0  0  0
   -3.3580   -1.2500   -0.1180 N   0  0  0  0  0  0  0  0  0  0  0  0
   -3.7180   -2.4490    0.4130 N   0  0  0  0  0  0  0  0  0  0  0  0
   -4.9600   -2.7930    0.3090 C   0  0  0  0  0  0  0  0  0  0  0  0
   -5.4220   -4.0820    0.8510 C   0  0  0  0  0  0  0  0  0  0  0  0
   -4.5470   -4.9550    1.4980 C   0  0  0  0  0  0  0  0  0  0  0  0
   -5.0180   -6.1850    1.9470 C   0  0  0  0  0  0  0  0  0  0  0  0
   -6.3530   -6.4940    1.7340 C   0  0  0  0  0  0  0  0  0  0  0  0
   -7.2300   -5.6640    1.1230 N   0  0  0  0  0  0  0  0  0  0  0  0
   -6.7430   -4.4740    0.6920 C   0  0  0  0  0  0  0  0  0  0  0  0
  1  2  1  0
  1  5  1  0
  2  3  2  0
  2 14  1  0
  3  4  1  0
  4  5  2  0
  4  9  1  0
  5  6  1  0
  6  7  2  0
  7  8  1  0
  7 10  1  0
  8  9  2  0
 10 11  2  0
 10 12  2  0
 10 13  1  1
 14 15  1  0
 15 16  2  0
 16 17  1  0
 17 18  2  0
 17 22  1  0
 18 19  1  0
 19 20  2  0
 20 21  1  0
 21 22  2  0
M  END
$$$$
X1V26
     RDKit          3D

 24 26  0  0  0  0  0  0  0  0999 V2000
   -1.7540    0.8690   -0.1160 S   0  0  0  0  0  0  0  0  0  0  0  0
   -2.0720   -0.8240   -0.0230 C   0  0  0  0  0  0  0  0  0  0  0  0
   -0.9980   -1.5780    0.0570 N   0  0  0  0  0  0  0  0  0  0  0  0
    0.1460   -0.8100    0.0320 C   0  0  0  0  0  0  0  0  0  0  0  0
   -0.0590    0.5690   -0.0340 C   0  0  0  0  0  0  0  0  0  0  0  0
    1.0110    1.4820   -0.0420 C   0  0  0  0  0  0  0  0  0  0  0  0
    2.3110    0.9570   -0.0100 C   0  0  0  0  0  0  0  0  0  0  0  0
    2.5450   -0.4160    0.0370 C   0  0  0  0  0  0  0  0  0  0  0  0
    1.4660   -1.3050    0.0650 C   0  0  0  0  0  0  0  0  0  0  0  0
    3.6890    2.0670   -0.0660 S   0  0  1  0  0  0  0  0  0  0  0  0
    4.9080    1.3320    0.1670 O   0  0  0  0  0  0  0  0  0  0  0  0
    3.5180    2.9550   -1.1940 O   0  0  0  0  0  0  0  0  0  0  0  0
    3.4690    3.0040    1.3090 N   0  0  0  0  0  0  0  0  0  0  0  0
   -3.3560   -1.2780   -0.0210 N   0  0  0  0  0  0  0  0  0  0  0  0
   -3.6710   -2.4920    0.5090 N   0  0  0  0  0  0  0  0  0  0  0  0
   -4.9210   -2.8300    0.5040 C   0  0  0  0  0  0  0  0  0  0  0  0
   -5.3530   -4.0930    1.1350 C   0  0  0  0  0  0  0  0  0  0  0  0
   -4.4000   -4.9060    1.7660 C   0  0  0  0  0  0  0  0  0  0  0  0
   -4.8020   -6.0760    2.4030 C   0  0  0  0  0  0  0  0  0  0  0  0
   -6.1460   -6.4490    2.4130 C   0  0  0  0  0  0  0  0  0  0  0  0
   -7.0990   -5.6450    1.7800 C   0  0  0  0  0  0  0  0  0  0  0  0
   -6.7010   -4.4670    1.1450 C   0  0  0  0  0  0  0  0  0  0  0  0
   -7.6360   -3.6750    0.5390 O   0  0  0  0  0  0  0  0  0  0  0  0
   -3.6380   -7.0640    3.1930 Cl  0  0  0  0  0  0  0  0  0  0  0  0
  1  2  1  0
  1  5  1  0
  2  3  2  0
  2 14  1  0
  3  4  1  0
  4  5  2  0
  4  9  1  0
  5  6  1  0
  6  7  2  0
  7  8  1  0
  7 10  1  0
  8  9  2  0
 10 11  2  0
 10 12  2  0
 10 13  1  1
 14 15  1  0
 15 16  2  0
 16 17  1  0
 17 18  1  0
 17 22  2  0
 18 19  2  0
 19 20  1  0
 19 24  1  0
 20 21  2  0
 21 22  1  0
 22 23  1  0
M  END
$$$$
X1V9
     RDKit          3D

 23 25  0  0  0  0  0  0  0  0999 V2000
   -0.7920   -1.7660   -0.6270 S   0  0  0  0  0  0  0  0  0  0  0  0
   -2.0830   -0.8140    0.0100 C   0  0  0  0  0  0  0  0  0  0  0  0
   -1.7140    0.3590    0.4740 N   0  0  0  0  0  0  0  0  0  0  0  0
   -0.3490    0.5300    0.3610 C   0  0  0  0  0  0  0  0  0  0  0  0
    0.3390   -0.5190   -0.2510 C   0  0  0  0  0  0  0  0  0  0  0  0
    1.7310   -0.4750   -0.4620 C   0  0  0  0  0  0  0  0  0  0  0  0
    2.4210    0.6490    0.0100 C   0  0  0  0  0  0  0  0  0  0  0  0
    1.7620    1.7050    0.6340 C   0  0  0  0  0  0  0  0  0  0  0  0
    0.3760    1.6530    0.8100 C   0  0  0  0  0  0  0  0  0  0  0  0
    4.1780    0.7450   -0.1990 S   0  0  1  0  0  0  0  0  0  0  0  0
    4.6260    2.0660    0.1630 O   0  0  0  0  0  0  0  0  0  0  0  0
    4.7720   -0.4550    0.3370 O   0  0  0  0  0  0  0  0  0  0  0  0
    4.3620    0.6720   -1.8700 N   0  0  0  0  0  0  0  0  0  0  0  0
   -3.3600   -1.2910   -0.0030 N   0  0  0  0  0  0  0  0  0  0  0  0
   -4.4270   -0.4430    0.0210 N   0  0  0  0  0  0  0  0  0  0  0  0
   -5.6090   -0.9660   -0.0550 C   0  0  0  0  0  0  0  0  0  0  0  0
   -6.8050   -0.0930   -0.1070 C   0  0  0  0  0  0  0  0  0  0  0  0
   -6.6510    1.2980   -0.1300 C   0  0  0  0  0  0  0  0  0  0  0  0
   -7.7670    2.1280   -0.1930 C   0  0  0  0  0  0  0  0  0  0  0  0
   -9.0520    1.5840   -0.2290 C   0  0  0  0  0  0  0  0  0  0  0  0
   -9.2060    0.1890   -0.2020 C   0  0  0  0  0  0  0  0  0  0  0  0
   -8.0850   -0.6510   -0.1420 C   0  0  0  0  0  0  0  0  0  0  0  0
  -10.2580    2.4790   -0.2950 C   0  0  0  0  0  0  0  0  0  0  0  0
  1  2  1  0
  1  5  1  0
  2  3  2  0
  2 14  1  0
  3  4  1  0
  4  5  2  0
  4  9  1  0
  5  6  1  0
  6  7  2  0
  7  8  1  0
  7 10  1  0
  8  9  2  0
 10 11  2  0
 10 12  2  0
 10 13  1  6
 14 15  1  0
 15 16  2  0
 16 17  1  0
 17 18  1  0
 17 22  2  0
 18 19  2  0
 19 20  1  0
 20 21  2  0
 23 20  1  1
 21 22  1  0
M  END
$$$$
